
---------- Begin Simulation Statistics ----------
final_tick                                 2036239000                       # Number of ticks from beginning of simulation (restored from checkpoints and never reset)
host_inst_rate                                 250739                       # Simulator instruction rate (inst/s)
host_mem_usage                                 653556                       # Number of bytes of host memory used
host_op_rate                                   447713                       # Simulator op (including micro ops) rate (op/s)
host_seconds                                    32.32                       # Real time elapsed on the host
host_tick_rate                               62999995                       # Simulator tick rate (ticks/s)
sim_freq                                 1000000000000                       # Frequency of simulated ticks
sim_insts                                     8104173                       # Number of instructions simulated
sim_ops                                      14470629                       # Number of ops (including micro ops) simulated
sim_seconds                                  0.002036                       # Number of seconds simulated
sim_ticks                                  2036239000                       # Number of ticks simulated
system.cpu.cc_regfile_reads                   1486341                       # number of cc regfile reads
system.cpu.cc_regfile_writes                  1779139                       # number of cc regfile writes
system.cpu.committedInsts                     8104173                       # Number of Instructions Simulated
system.cpu.committedOps                      14470629                       # Number of Ops (including micro ops) Simulated
system.cpu.cpi                               0.502516                       # CPI: Cycles Per Instruction
system.cpu.cpi_total                         0.502516                       # CPI: Total CPI of All Threads
system.cpu.fp_regfile_reads                  13370854                       # number of floating regfile reads
system.cpu.fp_regfile_writes                 11863807                       # number of floating regfile writes
system.cpu.idleCycles                           37768                       # Total number of cycles that the CPU has spent unscheduled due to idling
system.cpu.iew.branchMispredicts                  983                       # Number of branch mispredicts detected at execute
system.cpu.iew.exec_branches                   297489                       # Number of branches executed
system.cpu.iew.exec_nop                             0                       # number of nop insts executed
system.cpu.iew.exec_rate                     3.559269                       # Inst execution rate
system.cpu.iew.exec_refs                      2771350                       # number of memory reference insts executed
system.cpu.iew.exec_stores                     133173                       # Number of stores executed
system.cpu.iew.exec_swp                             0                       # number of swp insts executed
system.cpu.iew.iewBlockCycles                   27061                       # Number of cycles IEW is blocking
system.cpu.iew.iewDispLoadInsts               2625552                       # Number of dispatched load instructions
system.cpu.iew.iewDispNonSpecInsts                  2                       # Number of dispatched non-speculative instructions
system.cpu.iew.iewDispSquashedInsts                83                       # Number of squashed instructions skipped by dispatch
system.cpu.iew.iewDispStoreInsts               133595                       # Number of dispatched store instructions
system.cpu.iew.iewDispatchedInsts            14487692                       # Number of instructions dispatched to IQ
system.cpu.iew.iewExecLoadInsts               2638177                       # Number of load instructions executed
system.cpu.iew.iewExecSquashedInsts              2573                       # Number of squashed instructions skipped in execute
system.cpu.iew.iewExecutedInsts              14495047                       # Number of executed instructions
system.cpu.iew.iewIQFullEvents                   1919                       # Number of times the IQ has become full, causing a stall
system.cpu.iew.iewIdleCycles                        0                       # Number of cycles IEW is idle
system.cpu.iew.iewLSQFullEvents                  2456                       # Number of times the LSQ has become full, causing a stall
system.cpu.iew.iewSquashCycles                    903                       # Number of cycles IEW is squashing
system.cpu.iew.iewUnblockCycles                  4561                       # Number of cycles IEW is unblocking
system.cpu.iew.memOrderViolationEvents             10                       # Number of memory order violations
system.cpu.iew.predictedNotTakenIncorrect          655                       # Number of branches that were predicted not taken incorrectly
system.cpu.iew.predictedTakenIncorrect            328                       # Number of branches that were predicted taken incorrectly
system.cpu.iew.wb_consumers                  10334202                       # num instructions consuming a value
system.cpu.iew.wb_count                      14480198                       # cumulative count of insts written-back
system.cpu.iew.wb_fanout                     0.675003                       # average fanout of values written-back
system.cpu.iew.wb_producers                   6975621                       # num instructions producing a value
system.cpu.iew.wb_rate                       3.555623                       # insts written-back per cycle
system.cpu.iew.wb_sent                       14480607                       # cumulative count of insts sent to commit
system.cpu.int_regfile_reads                  8127893                       # number of integer regfile reads
system.cpu.int_regfile_writes                 2152421                       # number of integer regfile writes
system.cpu.ipc                               1.989985                       # IPC: Instructions Per Cycle
system.cpu.ipc_total                         1.989985                       # IPC: Total IPC of All Threads
system.cpu.iq.FU_type_0::No_OpClass              1003      0.01%      0.01% # Type of FU issued
system.cpu.iq.FU_type_0::IntAlu               2546675     17.57%     17.57% # Type of FU issued
system.cpu.iq.FU_type_0::IntMult                    5      0.00%     17.57% # Type of FU issued
system.cpu.iq.FU_type_0::IntDiv                    21      0.00%     17.57% # Type of FU issued
system.cpu.iq.FU_type_0::FloatAdd             4720918     32.56%     50.14% # Type of FU issued
system.cpu.iq.FU_type_0::FloatCmp                   0      0.00%     50.14% # Type of FU issued
system.cpu.iq.FU_type_0::FloatCvt                   0      0.00%     50.14% # Type of FU issued
system.cpu.iq.FU_type_0::FloatMult                  0      0.00%     50.14% # Type of FU issued
system.cpu.iq.FU_type_0::FloatMultAcc               0      0.00%     50.14% # Type of FU issued
system.cpu.iq.FU_type_0::FloatDiv                   0      0.00%     50.14% # Type of FU issued
system.cpu.iq.FU_type_0::FloatMisc                  0      0.00%     50.14% # Type of FU issued
system.cpu.iq.FU_type_0::FloatSqrt                  0      0.00%     50.14% # Type of FU issued
system.cpu.iq.FU_type_0::SimdAdd                    0      0.00%     50.14% # Type of FU issued
system.cpu.iq.FU_type_0::SimdAddAcc                 0      0.00%     50.14% # Type of FU issued
system.cpu.iq.FU_type_0::SimdAlu                  157      0.00%     50.14% # Type of FU issued
system.cpu.iq.FU_type_0::SimdCmp                    0      0.00%     50.14% # Type of FU issued
system.cpu.iq.FU_type_0::SimdCvt                   46      0.00%     50.14% # Type of FU issued
system.cpu.iq.FU_type_0::SimdMisc              262366      1.81%     51.95% # Type of FU issued
system.cpu.iq.FU_type_0::SimdMult                   0      0.00%     51.95% # Type of FU issued
system.cpu.iq.FU_type_0::SimdMultAcc                0      0.00%     51.95% # Type of FU issued
system.cpu.iq.FU_type_0::SimdShift                  0      0.00%     51.95% # Type of FU issued
system.cpu.iq.FU_type_0::SimdShiftAcc               0      0.00%     51.95% # Type of FU issued
system.cpu.iq.FU_type_0::SimdDiv                    0      0.00%     51.95% # Type of FU issued
system.cpu.iq.FU_type_0::SimdSqrt                   0      0.00%     51.95% # Type of FU issued
system.cpu.iq.FU_type_0::SimdFloatAdd         2097152     14.47%     66.41% # Type of FU issued
system.cpu.iq.FU_type_0::SimdFloatAlu               0      0.00%     66.41% # Type of FU issued
system.cpu.iq.FU_type_0::SimdFloatCmp               0      0.00%     66.41% # Type of FU issued
system.cpu.iq.FU_type_0::SimdFloatCvt               1      0.00%     66.41% # Type of FU issued
system.cpu.iq.FU_type_0::SimdFloatDiv               0      0.00%     66.41% # Type of FU issued
system.cpu.iq.FU_type_0::SimdFloatMisc              0      0.00%     66.41% # Type of FU issued
system.cpu.iq.FU_type_0::SimdFloatMult        2097152     14.47%     80.88% # Type of FU issued
system.cpu.iq.FU_type_0::SimdFloatMultAcc            0      0.00%     80.88% # Type of FU issued
system.cpu.iq.FU_type_0::SimdFloatSqrt              0      0.00%     80.88% # Type of FU issued
system.cpu.iq.FU_type_0::SimdReduceAdd              0      0.00%     80.88% # Type of FU issued
system.cpu.iq.FU_type_0::SimdReduceAlu              0      0.00%     80.88% # Type of FU issued
system.cpu.iq.FU_type_0::SimdReduceCmp              0      0.00%     80.88% # Type of FU issued
system.cpu.iq.FU_type_0::SimdFloatReduceAdd            0      0.00%     80.88% # Type of FU issued
system.cpu.iq.FU_type_0::SimdFloatReduceCmp            0      0.00%     80.88% # Type of FU issued
system.cpu.iq.FU_type_0::SimdAes                    0      0.00%     80.88% # Type of FU issued
system.cpu.iq.FU_type_0::SimdAesMix                 0      0.00%     80.88% # Type of FU issued
system.cpu.iq.FU_type_0::SimdSha1Hash               0      0.00%     80.88% # Type of FU issued
system.cpu.iq.FU_type_0::SimdSha1Hash2              0      0.00%     80.88% # Type of FU issued
system.cpu.iq.FU_type_0::SimdSha256Hash             0      0.00%     80.88% # Type of FU issued
system.cpu.iq.FU_type_0::SimdSha256Hash2            0      0.00%     80.88% # Type of FU issued
system.cpu.iq.FU_type_0::SimdShaSigma2              0      0.00%     80.88% # Type of FU issued
system.cpu.iq.FU_type_0::SimdShaSigma3              0      0.00%     80.88% # Type of FU issued
system.cpu.iq.FU_type_0::SimdPredAlu                0      0.00%     80.88% # Type of FU issued
system.cpu.iq.FU_type_0::MemRead                 2723      0.02%     80.90% # Type of FU issued
system.cpu.iq.FU_type_0::MemWrite                1646      0.01%     80.91% # Type of FU issued
system.cpu.iq.FU_type_0::FloatMemRead         2636161     18.18%     99.09% # Type of FU issued
system.cpu.iq.FU_type_0::FloatMemWrite         131600      0.91%    100.00% # Type of FU issued
system.cpu.iq.FU_type_0::IprAccess                  0      0.00%    100.00% # Type of FU issued
system.cpu.iq.FU_type_0::InstPrefetch               0      0.00%    100.00% # Type of FU issued
system.cpu.iq.FU_type_0::total               14497626                       # Type of FU issued
system.cpu.iq.fp_alu_accesses                12318560                       # Number of floating point alu accesses
system.cpu.iq.fp_inst_queue_reads            24330334                       # Number of floating instruction queue reads
system.cpu.iq.fp_inst_queue_wakeup_accesses     11995442                       # Number of floating instruction queue wakeup accesses
system.cpu.iq.fp_inst_queue_writes           12002453                       # Number of floating instruction queue writes
system.cpu.iq.fu_busy_cnt                      307587                       # FU busy when requested
system.cpu.iq.fu_busy_rate                   0.021216                       # FU busy rate (busy events/executed inst)
system.cpu.iq.fu_full::No_OpClass                   0      0.00%      0.00% # attempts to use FU when none available
system.cpu.iq.fu_full::IntAlu                     209      0.07%      0.07% # attempts to use FU when none available
system.cpu.iq.fu_full::IntMult                      0      0.00%      0.07% # attempts to use FU when none available
system.cpu.iq.fu_full::IntDiv                       0      0.00%      0.07% # attempts to use FU when none available
system.cpu.iq.fu_full::FloatAdd                 81876     26.62%     26.69% # attempts to use FU when none available
system.cpu.iq.fu_full::FloatCmp                     0      0.00%     26.69% # attempts to use FU when none available
system.cpu.iq.fu_full::FloatCvt                     0      0.00%     26.69% # attempts to use FU when none available
system.cpu.iq.fu_full::FloatMult                    0      0.00%     26.69% # attempts to use FU when none available
system.cpu.iq.fu_full::FloatMultAcc                 0      0.00%     26.69% # attempts to use FU when none available
system.cpu.iq.fu_full::FloatDiv                     0      0.00%     26.69% # attempts to use FU when none available
system.cpu.iq.fu_full::FloatMisc                    0      0.00%     26.69% # attempts to use FU when none available
system.cpu.iq.fu_full::FloatSqrt                    0      0.00%     26.69% # attempts to use FU when none available
system.cpu.iq.fu_full::SimdAdd                      0      0.00%     26.69% # attempts to use FU when none available
system.cpu.iq.fu_full::SimdAddAcc                   0      0.00%     26.69% # attempts to use FU when none available
system.cpu.iq.fu_full::SimdAlu                     10      0.00%     26.69% # attempts to use FU when none available
system.cpu.iq.fu_full::SimdCmp                      0      0.00%     26.69% # attempts to use FU when none available
system.cpu.iq.fu_full::SimdCvt                      1      0.00%     26.69% # attempts to use FU when none available
system.cpu.iq.fu_full::SimdMisc                 33295     10.82%     37.51% # attempts to use FU when none available
system.cpu.iq.fu_full::SimdMult                     0      0.00%     37.51% # attempts to use FU when none available
system.cpu.iq.fu_full::SimdMultAcc                  0      0.00%     37.51% # attempts to use FU when none available
system.cpu.iq.fu_full::SimdShift                    0      0.00%     37.51% # attempts to use FU when none available
system.cpu.iq.fu_full::SimdShiftAcc                 0      0.00%     37.51% # attempts to use FU when none available
system.cpu.iq.fu_full::SimdDiv                      0      0.00%     37.51% # attempts to use FU when none available
system.cpu.iq.fu_full::SimdSqrt                     0      0.00%     37.51% # attempts to use FU when none available
system.cpu.iq.fu_full::SimdFloatAdd             75637     24.59%     62.11% # attempts to use FU when none available
system.cpu.iq.fu_full::SimdFloatAlu                 0      0.00%     62.11% # attempts to use FU when none available
system.cpu.iq.fu_full::SimdFloatCmp                 0      0.00%     62.11% # attempts to use FU when none available
system.cpu.iq.fu_full::SimdFloatCvt                 0      0.00%     62.11% # attempts to use FU when none available
system.cpu.iq.fu_full::SimdFloatDiv                 0      0.00%     62.11% # attempts to use FU when none available
system.cpu.iq.fu_full::SimdFloatMisc                0      0.00%     62.11% # attempts to use FU when none available
system.cpu.iq.fu_full::SimdFloatMult           114038     37.08%     99.18% # attempts to use FU when none available
system.cpu.iq.fu_full::SimdFloatMultAcc             0      0.00%     99.18% # attempts to use FU when none available
system.cpu.iq.fu_full::SimdFloatSqrt                0      0.00%     99.18% # attempts to use FU when none available
system.cpu.iq.fu_full::SimdReduceAdd                0      0.00%     99.18% # attempts to use FU when none available
system.cpu.iq.fu_full::SimdReduceAlu                0      0.00%     99.18% # attempts to use FU when none available
system.cpu.iq.fu_full::SimdReduceCmp                0      0.00%     99.18% # attempts to use FU when none available
system.cpu.iq.fu_full::SimdFloatReduceAdd            0      0.00%     99.18% # attempts to use FU when none available
system.cpu.iq.fu_full::SimdFloatReduceCmp            0      0.00%     99.18% # attempts to use FU when none available
system.cpu.iq.fu_full::SimdAes                      0      0.00%     99.18% # attempts to use FU when none available
system.cpu.iq.fu_full::SimdAesMix                   0      0.00%     99.18% # attempts to use FU when none available
system.cpu.iq.fu_full::SimdSha1Hash                 0      0.00%     99.18% # attempts to use FU when none available
system.cpu.iq.fu_full::SimdSha1Hash2                0      0.00%     99.18% # attempts to use FU when none available
system.cpu.iq.fu_full::SimdSha256Hash               0      0.00%     99.18% # attempts to use FU when none available
system.cpu.iq.fu_full::SimdSha256Hash2              0      0.00%     99.18% # attempts to use FU when none available
system.cpu.iq.fu_full::SimdShaSigma2                0      0.00%     99.18% # attempts to use FU when none available
system.cpu.iq.fu_full::SimdShaSigma3                0      0.00%     99.18% # attempts to use FU when none available
system.cpu.iq.fu_full::SimdPredAlu                  0      0.00%     99.18% # attempts to use FU when none available
system.cpu.iq.fu_full::MemRead                     29      0.01%     99.19% # attempts to use FU when none available
system.cpu.iq.fu_full::MemWrite                    19      0.01%     99.20% # attempts to use FU when none available
system.cpu.iq.fu_full::FloatMemRead              2466      0.80%    100.00% # attempts to use FU when none available
system.cpu.iq.fu_full::FloatMemWrite                7      0.00%    100.00% # attempts to use FU when none available
system.cpu.iq.fu_full::IprAccess                    0      0.00%    100.00% # attempts to use FU when none available
system.cpu.iq.fu_full::InstPrefetch                 0      0.00%    100.00% # attempts to use FU when none available
system.cpu.iq.int_alu_accesses                2485650                       # Number of integer alu accesses
system.cpu.iq.int_inst_queue_reads            9007787                       # Number of integer instruction queue reads
system.cpu.iq.int_inst_queue_wakeup_accesses      2484756                       # Number of integer instruction queue wakeup accesses
system.cpu.iq.int_inst_queue_writes           2502297                       # Number of integer instruction queue writes
system.cpu.iq.iqInstsAdded                   14487690                       # Number of instructions added to the IQ (excludes non-spec)
system.cpu.iq.iqInstsIssued                  14497626                       # Number of instructions issued
system.cpu.iq.iqNonSpecInstsAdded                   2                       # Number of non-speculative instructions added to the IQ
system.cpu.iq.iqSquashedInstsExamined           17049                       # Number of squashed instructions iterated over during squash; mainly for profiling
system.cpu.iq.iqSquashedInstsIssued               577                       # Number of squashed instructions issued
system.cpu.iq.iqSquashedNonSpecRemoved              2                       # Number of squashed non-spec instructions that were removed
system.cpu.iq.iqSquashedOperandsExamined        17936                       # Number of squashed operands that are examined and possibly removed from graph
system.cpu.iq.issued_per_cycle::samples       4034711                       # Number of insts issued each cycle
system.cpu.iq.issued_per_cycle::mean         3.593225                       # Number of insts issued each cycle
system.cpu.iq.issued_per_cycle::stdev        2.753152                       # Number of insts issued each cycle
system.cpu.iq.issued_per_cycle::underflows            0      0.00%      0.00% # Number of insts issued each cycle
system.cpu.iq.issued_per_cycle::0              467674     11.59%     11.59% # Number of insts issued each cycle
system.cpu.iq.issued_per_cycle::1             1089627     27.01%     38.60% # Number of insts issued each cycle
system.cpu.iq.issued_per_cycle::2              301238      7.47%     46.06% # Number of insts issued each cycle
system.cpu.iq.issued_per_cycle::3              197290      4.89%     50.95% # Number of insts issued each cycle
system.cpu.iq.issued_per_cycle::4              293396      7.27%     58.23% # Number of insts issued each cycle
system.cpu.iq.issued_per_cycle::5              263846      6.54%     64.76% # Number of insts issued each cycle
system.cpu.iq.issued_per_cycle::6              557151     13.81%     78.57% # Number of insts issued each cycle
system.cpu.iq.issued_per_cycle::7              537979     13.33%     91.91% # Number of insts issued each cycle
system.cpu.iq.issued_per_cycle::8              326510      8.09%    100.00% # Number of insts issued each cycle
system.cpu.iq.issued_per_cycle::overflows            0      0.00%    100.00% # Number of insts issued each cycle
system.cpu.iq.issued_per_cycle::min_value            0                       # Number of insts issued each cycle
system.cpu.iq.issued_per_cycle::max_value            8                       # Number of insts issued each cycle
system.cpu.iq.issued_per_cycle::total         4034711                       # Number of insts issued each cycle
system.cpu.iq.rate                           3.559902                       # Inst issue rate
system.cpu.iq.vec_alu_accesses                      0                       # Number of vector alu accesses
system.cpu.iq.vec_inst_queue_reads                  0                       # Number of vector instruction queue reads
system.cpu.iq.vec_inst_queue_wakeup_accesses            0                       # Number of vector instruction queue wakeup accesses
system.cpu.iq.vec_inst_queue_writes                 0                       # Number of vector instruction queue writes
system.cpu.memDep0.conflictingLoads                27                       # Number of conflicting loads.
system.cpu.memDep0.conflictingStores               13                       # Number of conflicting stores.
system.cpu.memDep0.insertedLoads              2625552                       # Number of loads inserted to the mem dependence unit.
system.cpu.memDep0.insertedStores              133595                       # Number of stores inserted to the mem dependence unit.
system.cpu.misc_regfile_reads                 3367359                       # number of misc regfile reads
system.cpu.numCycles                          4072479                       # number of cpu cycles simulated
system.cpu.numWorkItemsCompleted                    0                       # number of work items this cpu completed
system.cpu.numWorkItemsStarted                      0                       # number of work items this cpu started
system.cpu.timesIdled                             326                       # Number of times that the entire CPU went into an idle state and unscheduled itself
system.cpu.workload.numSyscalls                    10                       # Number of system calls
system.membus.snoop_filter.hit_multi_requests            0                       # Number of requests hitting in the snoop filter with multiple (>1) holders of the requested data.
system.membus.snoop_filter.hit_multi_snoops            0                       # Number of snoops hitting in the snoop filter with multiple (>1) holders of the requested data.
system.membus.snoop_filter.hit_single_requests         1048                       # Number of requests hitting in the snoop filter with a single holder of the requested data.
system.membus.snoop_filter.hit_single_snoops            0                       # Number of snoops hitting in the snoop filter with a single holder of the requested data.
system.membus.snoop_filter.tot_requests          5818                       # Total number of requests made to the snoop filter.
system.membus.snoop_filter.tot_snoops               0                       # Total number of snoops made to the snoop filter.
system.tol2bus.snoop_filter.hit_multi_requests            0                       # Number of requests hitting in the snoop filter with multiple (>1) holders of the requested data.
system.tol2bus.snoop_filter.hit_multi_snoops            0                       # Number of snoops hitting in the snoop filter with multiple (>1) holders of the requested data.
system.tol2bus.snoop_filter.hit_single_requests        47862                       # Number of requests hitting in the snoop filter with a single holder of the requested data.
system.tol2bus.snoop_filter.hit_single_snoops         1452                       # Number of snoops hitting in the snoop filter with a single holder of the requested data.
system.tol2bus.snoop_filter.tot_requests        97184                       # Total number of requests made to the snoop filter.
system.tol2bus.snoop_filter.tot_snoops           1452                       # Total number of snoops made to the snoop filter.
system.clk_domain.clock                          1000                       # Clock period in ticks
system.cpu.branchPred.lookups                  299122                       # Number of BP lookups
system.cpu.branchPred.condPredicted            297944                       # Number of conditional branches predicted
system.cpu.branchPred.condIncorrect               959                       # Number of conditional branches incorrect
system.cpu.branchPred.BTBLookups               264272                       # Number of BTB lookups
system.cpu.branchPred.BTBHits                  263523                       # Number of BTB hits
system.cpu.branchPred.BTBHitPct             99.716580                       # BTB Hit Percentage
system.cpu.branchPred.RASUsed                     282                       # Number of times the RAS was used to get a target.
system.cpu.branchPred.RASIncorrect                  0                       # Number of incorrect RAS predictions.
system.cpu.branchPred.indirectLookups             297                       # Number of indirect predictor lookups.
system.cpu.branchPred.indirectHits                 18                       # Number of indirect target hits.
system.cpu.branchPred.indirectMisses              279                       # Number of indirect misses.
system.cpu.branchPred.indirectMispredicted           90                       # Number of mispredicted indirect branches.
system.cpu.commit.commitSquashedInsts           16941                       # The number of squashed insts skipped by commit
system.cpu.commit.branchMispredicts               882                       # The number of times a branch was mispredicted
system.cpu.commit.numCommittedDist::samples      4032147                       # Number of insts commited each cycle
system.cpu.commit.numCommittedDist::mean     3.588815                       # Number of insts commited each cycle
system.cpu.commit.numCommittedDist::stdev     3.283912                       # Number of insts commited each cycle
system.cpu.commit.numCommittedDist::underflows            0      0.00%      0.00% # Number of insts commited each cycle
system.cpu.commit.numCommittedDist::0         1281293     31.78%     31.78% # Number of insts commited each cycle
system.cpu.commit.numCommittedDist::1          411679     10.21%     41.99% # Number of insts commited each cycle
system.cpu.commit.numCommittedDist::2          250563      6.21%     48.20% # Number of insts commited each cycle
system.cpu.commit.numCommittedDist::3           35638      0.88%     49.08% # Number of insts commited each cycle
system.cpu.commit.numCommittedDist::4          282254      7.00%     56.08% # Number of insts commited each cycle
system.cpu.commit.numCommittedDist::5          562349     13.95%     70.03% # Number of insts commited each cycle
system.cpu.commit.numCommittedDist::6           61237      1.52%     71.55% # Number of insts commited each cycle
system.cpu.commit.numCommittedDist::7           34345      0.85%     72.40% # Number of insts commited each cycle
system.cpu.commit.numCommittedDist::8         1112789     27.60%    100.00% # Number of insts commited each cycle
system.cpu.commit.numCommittedDist::overflows            0      0.00%    100.00% # Number of insts commited each cycle
system.cpu.commit.numCommittedDist::min_value            0                       # Number of insts commited each cycle
system.cpu.commit.numCommittedDist::max_value            8                       # Number of insts commited each cycle
system.cpu.commit.numCommittedDist::total      4032147                       # Number of insts commited each cycle
system.cpu.commit.instsCommitted              8104173                       # Number of instructions committed
system.cpu.commit.opsCommitted               14470629                       # Number of ops (including micro ops) committed
system.cpu.commit.memRefs                     2755586                       # Number of memory references committed
system.cpu.commit.loads                       2622923                       # Number of loads committed
system.cpu.commit.amos                              0                       # Number of atomic instructions committed
system.cpu.commit.membars                           0                       # Number of memory barriers committed
system.cpu.commit.branches                     296838                       # Number of branches committed
system.cpu.commit.vector                            0                       # Number of committed Vector instructions.
system.cpu.commit.floating                   11994221                       # Number of committed floating point instructions.
system.cpu.commit.integer                     5196288                       # Number of committed integer instructions.
system.cpu.commit.functionCalls                   144                       # Number of function calls committed.
system.cpu.commit.committedInstType_0::No_OpClass          536      0.00%      0.00% # Class of committed instruction
system.cpu.commit.committedInstType_0::IntAlu      2538951     17.55%     17.55% # Class of committed instruction
system.cpu.commit.committedInstType_0::IntMult            5      0.00%     17.55% # Class of committed instruction
system.cpu.commit.committedInstType_0::IntDiv           21      0.00%     17.55% # Class of committed instruction
system.cpu.commit.committedInstType_0::FloatAdd      4718727     32.61%     50.16% # Class of committed instruction
system.cpu.commit.committedInstType_0::FloatCmp            0      0.00%     50.16% # Class of committed instruction
system.cpu.commit.committedInstType_0::FloatCvt            0      0.00%     50.16% # Class of committed instruction
system.cpu.commit.committedInstType_0::FloatMult            0      0.00%     50.16% # Class of committed instruction
system.cpu.commit.committedInstType_0::FloatMultAcc            0      0.00%     50.16% # Class of committed instruction
system.cpu.commit.committedInstType_0::FloatDiv            0      0.00%     50.16% # Class of committed instruction
system.cpu.commit.committedInstType_0::FloatMisc            0      0.00%     50.16% # Class of committed instruction
system.cpu.commit.committedInstType_0::FloatSqrt            0      0.00%     50.16% # Class of committed instruction
system.cpu.commit.committedInstType_0::SimdAdd            0      0.00%     50.16% # Class of committed instruction
system.cpu.commit.committedInstType_0::SimdAddAcc            0      0.00%     50.16% # Class of committed instruction
system.cpu.commit.committedInstType_0::SimdAlu           94      0.00%     50.16% # Class of committed instruction
system.cpu.commit.committedInstType_0::SimdCmp            0      0.00%     50.16% # Class of committed instruction
system.cpu.commit.committedInstType_0::SimdCvt           46      0.00%     50.16% # Class of committed instruction
system.cpu.commit.committedInstType_0::SimdMisc       262359      1.81%     51.97% # Class of committed instruction
system.cpu.commit.committedInstType_0::SimdMult            0      0.00%     51.97% # Class of committed instruction
system.cpu.commit.committedInstType_0::SimdMultAcc            0      0.00%     51.97% # Class of committed instruction
system.cpu.commit.committedInstType_0::SimdShift            0      0.00%     51.97% # Class of committed instruction
system.cpu.commit.committedInstType_0::SimdShiftAcc            0      0.00%     51.97% # Class of committed instruction
system.cpu.commit.committedInstType_0::SimdDiv            0      0.00%     51.97% # Class of committed instruction
system.cpu.commit.committedInstType_0::SimdSqrt            0      0.00%     51.97% # Class of committed instruction
system.cpu.commit.committedInstType_0::SimdFloatAdd      2097152     14.49%     66.46% # Class of committed instruction
system.cpu.commit.committedInstType_0::SimdFloatAlu            0      0.00%     66.46% # Class of committed instruction
system.cpu.commit.committedInstType_0::SimdFloatCmp            0      0.00%     66.46% # Class of committed instruction
system.cpu.commit.committedInstType_0::SimdFloatCvt            0      0.00%     66.46% # Class of committed instruction
system.cpu.commit.committedInstType_0::SimdFloatDiv            0      0.00%     66.46% # Class of committed instruction
system.cpu.commit.committedInstType_0::SimdFloatMisc            0      0.00%     66.46% # Class of committed instruction
system.cpu.commit.committedInstType_0::SimdFloatMult      2097152     14.49%     80.96% # Class of committed instruction
system.cpu.commit.committedInstType_0::SimdFloatMultAcc            0      0.00%     80.96% # Class of committed instruction
system.cpu.commit.committedInstType_0::SimdFloatSqrt            0      0.00%     80.96% # Class of committed instruction
system.cpu.commit.committedInstType_0::SimdReduceAdd            0      0.00%     80.96% # Class of committed instruction
system.cpu.commit.committedInstType_0::SimdReduceAlu            0      0.00%     80.96% # Class of committed instruction
system.cpu.commit.committedInstType_0::SimdReduceCmp            0      0.00%     80.96% # Class of committed instruction
system.cpu.commit.committedInstType_0::SimdFloatReduceAdd            0      0.00%     80.96% # Class of committed instruction
system.cpu.commit.committedInstType_0::SimdFloatReduceCmp            0      0.00%     80.96% # Class of committed instruction
system.cpu.commit.committedInstType_0::SimdAes            0      0.00%     80.96% # Class of committed instruction
system.cpu.commit.committedInstType_0::SimdAesMix            0      0.00%     80.96% # Class of committed instruction
system.cpu.commit.committedInstType_0::SimdSha1Hash            0      0.00%     80.96% # Class of committed instruction
system.cpu.commit.committedInstType_0::SimdSha1Hash2            0      0.00%     80.96% # Class of committed instruction
system.cpu.commit.committedInstType_0::SimdSha256Hash            0      0.00%     80.96% # Class of committed instruction
system.cpu.commit.committedInstType_0::SimdSha256Hash2            0      0.00%     80.96% # Class of committed instruction
system.cpu.commit.committedInstType_0::SimdShaSigma2            0      0.00%     80.96% # Class of committed instruction
system.cpu.commit.committedInstType_0::SimdShaSigma3            0      0.00%     80.96% # Class of committed instruction
system.cpu.commit.committedInstType_0::SimdPredAlu            0      0.00%     80.96% # Class of committed instruction
system.cpu.commit.committedInstType_0::MemRead         1437      0.01%     80.97% # Class of committed instruction
system.cpu.commit.committedInstType_0::MemWrite         1133      0.01%     80.98% # Class of committed instruction
system.cpu.commit.committedInstType_0::FloatMemRead      2621486     18.12%     99.09% # Class of committed instruction
system.cpu.commit.committedInstType_0::FloatMemWrite       131530      0.91%    100.00% # Class of committed instruction
system.cpu.commit.committedInstType_0::IprAccess            0      0.00%    100.00% # Class of committed instruction
system.cpu.commit.committedInstType_0::InstPrefetch            0      0.00%    100.00% # Class of committed instruction
system.cpu.commit.committedInstType_0::total     14470629                       # Class of committed instruction
system.cpu.commit.commitEligibleSamples       1112789                       # number cycles where commit BW limit reached
system.cpu.dcache.demand_hits::.cpu.data      2586751                       # number of demand (read+write) hits
system.cpu.dcache.demand_hits::total          2586751                       # number of demand (read+write) hits
system.cpu.dcache.overall_hits::.cpu.data      2586751                       # number of overall hits
system.cpu.dcache.overall_hits::total         2586751                       # number of overall hits
system.cpu.dcache.demand_misses::.cpu.data       301259                       # number of demand (read+write) misses
system.cpu.dcache.demand_misses::total         301259                       # number of demand (read+write) misses
system.cpu.dcache.overall_misses::.cpu.data       301259                       # number of overall misses
system.cpu.dcache.overall_misses::total        301259                       # number of overall misses
system.cpu.dcache.demand_miss_latency::.cpu.data   5148814999                       # number of demand (read+write) miss cycles
system.cpu.dcache.demand_miss_latency::total   5148814999                       # number of demand (read+write) miss cycles
system.cpu.dcache.overall_miss_latency::.cpu.data   5148814999                       # number of overall miss cycles
system.cpu.dcache.overall_miss_latency::total   5148814999                       # number of overall miss cycles
system.cpu.dcache.demand_accesses::.cpu.data      2888010                       # number of demand (read+write) accesses
system.cpu.dcache.demand_accesses::total      2888010                       # number of demand (read+write) accesses
system.cpu.dcache.overall_accesses::.cpu.data      2888010                       # number of overall (read+write) accesses
system.cpu.dcache.overall_accesses::total      2888010                       # number of overall (read+write) accesses
system.cpu.dcache.demand_miss_rate::.cpu.data     0.104314                       # miss rate for demand accesses
system.cpu.dcache.demand_miss_rate::total     0.104314                       # miss rate for demand accesses
system.cpu.dcache.overall_miss_rate::.cpu.data     0.104314                       # miss rate for overall accesses
system.cpu.dcache.overall_miss_rate::total     0.104314                       # miss rate for overall accesses
system.cpu.dcache.demand_avg_miss_latency::.cpu.data 17090.991469                       # average overall miss latency
system.cpu.dcache.demand_avg_miss_latency::total 17090.991469                       # average overall miss latency
system.cpu.dcache.overall_avg_miss_latency::.cpu.data 17090.991469                       # average overall miss latency
system.cpu.dcache.overall_avg_miss_latency::total 17090.991469                       # average overall miss latency
system.cpu.dcache.blocked_cycles::no_mshrs        40622                       # number of cycles access was blocked
system.cpu.dcache.blocked_cycles::no_targets            0                       # number of cycles access was blocked
system.cpu.dcache.blocked::no_mshrs              1878                       # number of cycles access was blocked
system.cpu.dcache.blocked::no_targets               0                       # number of cycles access was blocked
system.cpu.dcache.avg_blocked_cycles::no_mshrs    21.630458                       # average number of cycles each access was blocked
system.cpu.dcache.avg_blocked_cycles::no_targets          nan                       # average number of cycles each access was blocked
system.cpu.dcache.writebacks::.writebacks        37110                       # number of writebacks
system.cpu.dcache.writebacks::total             37110                       # number of writebacks
system.cpu.dcache.demand_mshr_hits::.cpu.data       252393                       # number of demand (read+write) MSHR hits
system.cpu.dcache.demand_mshr_hits::total       252393                       # number of demand (read+write) MSHR hits
system.cpu.dcache.overall_mshr_hits::.cpu.data       252393                       # number of overall MSHR hits
system.cpu.dcache.overall_mshr_hits::total       252393                       # number of overall MSHR hits
system.cpu.dcache.demand_mshr_misses::.cpu.data        48866                       # number of demand (read+write) MSHR misses
system.cpu.dcache.demand_mshr_misses::total        48866                       # number of demand (read+write) MSHR misses
system.cpu.dcache.overall_mshr_misses::.cpu.data        48866                       # number of overall MSHR misses
system.cpu.dcache.overall_mshr_misses::total        48866                       # number of overall MSHR misses
system.cpu.dcache.demand_mshr_miss_latency::.cpu.data    875569999                       # number of demand (read+write) MSHR miss cycles
system.cpu.dcache.demand_mshr_miss_latency::total    875569999                       # number of demand (read+write) MSHR miss cycles
system.cpu.dcache.overall_mshr_miss_latency::.cpu.data    875569999                       # number of overall MSHR miss cycles
system.cpu.dcache.overall_mshr_miss_latency::total    875569999                       # number of overall MSHR miss cycles
system.cpu.dcache.demand_mshr_miss_rate::.cpu.data     0.016920                       # mshr miss rate for demand accesses
system.cpu.dcache.demand_mshr_miss_rate::total     0.016920                       # mshr miss rate for demand accesses
system.cpu.dcache.overall_mshr_miss_rate::.cpu.data     0.016920                       # mshr miss rate for overall accesses
system.cpu.dcache.overall_mshr_miss_rate::total     0.016920                       # mshr miss rate for overall accesses
system.cpu.dcache.demand_avg_mshr_miss_latency::.cpu.data 17917.775120                       # average overall mshr miss latency
system.cpu.dcache.demand_avg_mshr_miss_latency::total 17917.775120                       # average overall mshr miss latency
system.cpu.dcache.overall_avg_mshr_miss_latency::.cpu.data 17917.775120                       # average overall mshr miss latency
system.cpu.dcache.overall_avg_mshr_miss_latency::total 17917.775120                       # average overall mshr miss latency
system.cpu.dcache.replacements                  47842                       # number of replacements
system.cpu.dcache.ReadReq_hits::.cpu.data      2458586                       # number of ReadReq hits
system.cpu.dcache.ReadReq_hits::total         2458586                       # number of ReadReq hits
system.cpu.dcache.ReadReq_misses::.cpu.data       296760                       # number of ReadReq misses
system.cpu.dcache.ReadReq_misses::total        296760                       # number of ReadReq misses
system.cpu.dcache.ReadReq_miss_latency::.cpu.data   5080212500                       # number of ReadReq miss cycles
system.cpu.dcache.ReadReq_miss_latency::total   5080212500                       # number of ReadReq miss cycles
system.cpu.dcache.ReadReq_accesses::.cpu.data      2755346                       # number of ReadReq accesses(hits+misses)
system.cpu.dcache.ReadReq_accesses::total      2755346                       # number of ReadReq accesses(hits+misses)
system.cpu.dcache.ReadReq_miss_rate::.cpu.data     0.107703                       # miss rate for ReadReq accesses
system.cpu.dcache.ReadReq_miss_rate::total     0.107703                       # miss rate for ReadReq accesses
system.cpu.dcache.ReadReq_avg_miss_latency::.cpu.data 17118.926068                       # average ReadReq miss latency
system.cpu.dcache.ReadReq_avg_miss_latency::total 17118.926068                       # average ReadReq miss latency
system.cpu.dcache.ReadReq_mshr_hits::.cpu.data       252392                       # number of ReadReq MSHR hits
system.cpu.dcache.ReadReq_mshr_hits::total       252392                       # number of ReadReq MSHR hits
system.cpu.dcache.ReadReq_mshr_misses::.cpu.data        44368                       # number of ReadReq MSHR misses
system.cpu.dcache.ReadReq_mshr_misses::total        44368                       # number of ReadReq MSHR misses
system.cpu.dcache.ReadReq_mshr_miss_latency::.cpu.data    811475000                       # number of ReadReq MSHR miss cycles
system.cpu.dcache.ReadReq_mshr_miss_latency::total    811475000                       # number of ReadReq MSHR miss cycles
system.cpu.dcache.ReadReq_mshr_miss_rate::.cpu.data     0.016103                       # mshr miss rate for ReadReq accesses
system.cpu.dcache.ReadReq_mshr_miss_rate::total     0.016103                       # mshr miss rate for ReadReq accesses
system.cpu.dcache.ReadReq_avg_mshr_miss_latency::.cpu.data 18289.645691                       # average ReadReq mshr miss latency
system.cpu.dcache.ReadReq_avg_mshr_miss_latency::total 18289.645691                       # average ReadReq mshr miss latency
system.cpu.dcache.WriteReq_hits::.cpu.data       128165                       # number of WriteReq hits
system.cpu.dcache.WriteReq_hits::total         128165                       # number of WriteReq hits
system.cpu.dcache.WriteReq_misses::.cpu.data         4499                       # number of WriteReq misses
system.cpu.dcache.WriteReq_misses::total         4499                       # number of WriteReq misses
system.cpu.dcache.WriteReq_miss_latency::.cpu.data     68602499                       # number of WriteReq miss cycles
system.cpu.dcache.WriteReq_miss_latency::total     68602499                       # number of WriteReq miss cycles
system.cpu.dcache.WriteReq_accesses::.cpu.data       132664                       # number of WriteReq accesses(hits+misses)
system.cpu.dcache.WriteReq_accesses::total       132664                       # number of WriteReq accesses(hits+misses)
system.cpu.dcache.WriteReq_miss_rate::.cpu.data     0.033913                       # miss rate for WriteReq accesses
system.cpu.dcache.WriteReq_miss_rate::total     0.033913                       # miss rate for WriteReq accesses
system.cpu.dcache.WriteReq_avg_miss_latency::.cpu.data 15248.388309                       # average WriteReq miss latency
system.cpu.dcache.WriteReq_avg_miss_latency::total 15248.388309                       # average WriteReq miss latency
system.cpu.dcache.WriteReq_mshr_hits::.cpu.data            1                       # number of WriteReq MSHR hits
system.cpu.dcache.WriteReq_mshr_hits::total            1                       # number of WriteReq MSHR hits
system.cpu.dcache.WriteReq_mshr_misses::.cpu.data         4498                       # number of WriteReq MSHR misses
system.cpu.dcache.WriteReq_mshr_misses::total         4498                       # number of WriteReq MSHR misses
system.cpu.dcache.WriteReq_mshr_miss_latency::.cpu.data     64094999                       # number of WriteReq MSHR miss cycles
system.cpu.dcache.WriteReq_mshr_miss_latency::total     64094999                       # number of WriteReq MSHR miss cycles
system.cpu.dcache.WriteReq_mshr_miss_rate::.cpu.data     0.033905                       # mshr miss rate for WriteReq accesses
system.cpu.dcache.WriteReq_mshr_miss_rate::total     0.033905                       # mshr miss rate for WriteReq accesses
system.cpu.dcache.WriteReq_avg_mshr_miss_latency::.cpu.data 14249.666296                       # average WriteReq mshr miss latency
system.cpu.dcache.WriteReq_avg_mshr_miss_latency::total 14249.666296                       # average WriteReq mshr miss latency
system.cpu.dcache.power_state.pwrStateResidencyTicks::UNDEFINED   2036239000                       # Cumulative time (in ticks) in various power states
system.cpu.dcache.tags.tagsinuse           976.463317                       # Cycle average of tags in use
system.cpu.dcache.tags.total_refs             2635617                       # Total number of references to valid blocks.
system.cpu.dcache.tags.sampled_refs             48866                       # Sample count of references to valid blocks.
system.cpu.dcache.tags.avg_refs             53.935599                       # Average number of references to valid blocks.
system.cpu.dcache.tags.warmup_cycle            176500                       # Cycle when the warmup percentage was hit.
system.cpu.dcache.tags.occ_blocks::.cpu.data   976.463317                       # Average occupied blocks per requestor
system.cpu.dcache.tags.occ_percent::.cpu.data     0.953577                       # Average percentage of cache occupancy
system.cpu.dcache.tags.occ_percent::total     0.953577                       # Average percentage of cache occupancy
system.cpu.dcache.tags.occ_task_id_blocks::1024         1024                       # Occupied blocks per task id
system.cpu.dcache.tags.age_task_id_blocks_1024::0          146                       # Occupied blocks per task id
system.cpu.dcache.tags.age_task_id_blocks_1024::1          112                       # Occupied blocks per task id
system.cpu.dcache.tags.age_task_id_blocks_1024::2          516                       # Occupied blocks per task id
system.cpu.dcache.tags.age_task_id_blocks_1024::3          250                       # Occupied blocks per task id
system.cpu.dcache.tags.occ_task_id_percent::1024            1                       # Percentage of cache occupancy per task id
system.cpu.dcache.tags.tag_accesses          46257026                       # Number of tag accesses
system.cpu.dcache.tags.data_accesses         46257026                       # Number of data accesses
system.cpu.dcache.tags.power_state.pwrStateResidencyTicks::UNDEFINED   2036239000                       # Cumulative time (in ticks) in various power states
system.cpu.decode.idleCycles                  1593577                       # Number of cycles decode is idle
system.cpu.decode.blockedCycles                369652                       # Number of cycles decode is blocked
system.cpu.decode.runCycles                   2058519                       # Number of cycles decode is running
system.cpu.decode.unblockCycles                 12060                       # Number of cycles decode is unblocking
system.cpu.decode.squashCycles                    903                       # Number of cycles decode is squashing
system.cpu.decode.branchResolved               263656                       # Number of times decode resolved a  branch
system.cpu.decode.branchMispred                   216                       # Number of times decode detected a branch misprediction
system.cpu.decode.decodedInsts               14496750                       # Number of instructions handled by decode
system.cpu.decode.squashedInsts                  1122                       # Number of squashed instructions handled by decode
system.cpu.dtb.rdAccesses                     2755621                       # TLB accesses on read requests
system.cpu.dtb.wrAccesses                      133175                       # TLB accesses on write requests
system.cpu.dtb.rdMisses                           128                       # TLB misses on read requests
system.cpu.dtb.wrMisses                            23                       # TLB misses on write requests
system.cpu.dtb.walker.power_state.pwrStateResidencyTicks::UNDEFINED   2036239000                       # Cumulative time (in ticks) in various power states
system.cpu.dtb_walker_cache.blocked_cycles::no_mshrs            0                       # number of cycles access was blocked
system.cpu.dtb_walker_cache.blocked_cycles::no_targets            0                       # number of cycles access was blocked
system.cpu.dtb_walker_cache.blocked::no_mshrs            0                       # number of cycles access was blocked
system.cpu.dtb_walker_cache.blocked::no_targets            0                       # number of cycles access was blocked
system.cpu.dtb_walker_cache.avg_blocked_cycles::no_mshrs          nan                       # average number of cycles each access was blocked
system.cpu.dtb_walker_cache.avg_blocked_cycles::no_targets          nan                       # average number of cycles each access was blocked
system.cpu.dtb_walker_cache.replacements            0                       # number of replacements
system.cpu.dtb_walker_cache.power_state.pwrStateResidencyTicks::UNDEFINED   2036239000                       # Cumulative time (in ticks) in various power states
system.cpu.dtb_walker_cache.tags.tagsinuse            0                       # Cycle average of tags in use
system.cpu.dtb_walker_cache.tags.total_refs            0                       # Total number of references to valid blocks.
system.cpu.dtb_walker_cache.tags.sampled_refs            0                       # Sample count of references to valid blocks.
system.cpu.dtb_walker_cache.tags.avg_refs          nan                       # Average number of references to valid blocks.
system.cpu.dtb_walker_cache.tags.warmup_cycle            0                       # Cycle when the warmup percentage was hit.
system.cpu.dtb_walker_cache.tags.tag_accesses            0                       # Number of tag accesses
system.cpu.dtb_walker_cache.tags.data_accesses            0                       # Number of data accesses
system.cpu.dtb_walker_cache.tags.power_state.pwrStateResidencyTicks::UNDEFINED   2036239000                       # Cumulative time (in ticks) in various power states
system.cpu.fetch.icacheStallCycles            1101142                       # Number of cycles fetch is stalled on an Icache miss
system.cpu.fetch.insts                        8119158                       # Number of instructions fetch has processed
system.cpu.fetch.branches                      299122                       # Number of branches that fetch encountered
system.cpu.fetch.predictedBranches             263823                       # Number of branches that fetch has predicted taken
system.cpu.fetch.cycles                       2931426                       # Number of cycles fetch has run and was not squashing or blocked
system.cpu.fetch.squashCycles                    2224                       # Number of cycles fetch has spent squashing
system.cpu.fetch.miscStallCycles                  145                       # Number of cycles fetch has spent waiting on interrupts,or bad addresses, or out of MSHRs
system.cpu.fetch.pendingTrapStallCycles           851                       # Number of stall cycles due to pending traps
system.cpu.fetch.pendingQuiesceStallCycles           20                       # Number of stall cycles due to pending quiesce instructions
system.cpu.fetch.icacheWaitRetryStallCycles           15                       # Number of stall cycles due to full MSHR
system.cpu.fetch.cacheLines                   1084996                       # Number of cache lines fetched
system.cpu.fetch.icacheSquashes                   327                       # Number of outstanding Icache misses that were squashed
system.cpu.fetch.nisnDist::samples            4034711                       # Number of instructions fetched each cycle (Total)
system.cpu.fetch.nisnDist::mean              3.593993                       # Number of instructions fetched each cycle (Total)
system.cpu.fetch.nisnDist::stdev             3.890309                       # Number of instructions fetched each cycle (Total)
system.cpu.fetch.nisnDist::underflows               0      0.00%      0.00% # Number of instructions fetched each cycle (Total)
system.cpu.fetch.nisnDist::0                  1958821     48.55%     48.55% # Number of instructions fetched each cycle (Total)
system.cpu.fetch.nisnDist::1                   264960      6.57%     55.12% # Number of instructions fetched each cycle (Total)
system.cpu.fetch.nisnDist::2                      992      0.02%     55.14% # Number of instructions fetched each cycle (Total)
system.cpu.fetch.nisnDist::3                    33870      0.84%     55.98% # Number of instructions fetched each cycle (Total)
system.cpu.fetch.nisnDist::4                      822      0.02%     56.00% # Number of instructions fetched each cycle (Total)
system.cpu.fetch.nisnDist::5                      878      0.02%     56.02% # Number of instructions fetched each cycle (Total)
system.cpu.fetch.nisnDist::6                    33600      0.83%     56.86% # Number of instructions fetched each cycle (Total)
system.cpu.fetch.nisnDist::7                     3251      0.08%     56.94% # Number of instructions fetched each cycle (Total)
system.cpu.fetch.nisnDist::8                  1737517     43.06%    100.00% # Number of instructions fetched each cycle (Total)
system.cpu.fetch.nisnDist::overflows                0      0.00%    100.00% # Number of instructions fetched each cycle (Total)
system.cpu.fetch.nisnDist::min_value                0                       # Number of instructions fetched each cycle (Total)
system.cpu.fetch.nisnDist::max_value                8                       # Number of instructions fetched each cycle (Total)
system.cpu.fetch.nisnDist::total              4034711                       # Number of instructions fetched each cycle (Total)
system.cpu.fetch.branchRate                  0.073450                       # Number of branch fetches per cycle
system.cpu.fetch.rate                        1.993665                       # Number of inst fetches per cycle
system.cpu.icache.demand_hits::.cpu.inst      1084396                       # number of demand (read+write) hits
system.cpu.icache.demand_hits::total          1084396                       # number of demand (read+write) hits
system.cpu.icache.overall_hits::.cpu.inst      1084396                       # number of overall hits
system.cpu.icache.overall_hits::total         1084396                       # number of overall hits
system.cpu.icache.demand_misses::.cpu.inst          600                       # number of demand (read+write) misses
system.cpu.icache.demand_misses::total            600                       # number of demand (read+write) misses
system.cpu.icache.overall_misses::.cpu.inst          600                       # number of overall misses
system.cpu.icache.overall_misses::total           600                       # number of overall misses
system.cpu.icache.demand_miss_latency::.cpu.inst     45591000                       # number of demand (read+write) miss cycles
system.cpu.icache.demand_miss_latency::total     45591000                       # number of demand (read+write) miss cycles
system.cpu.icache.overall_miss_latency::.cpu.inst     45591000                       # number of overall miss cycles
system.cpu.icache.overall_miss_latency::total     45591000                       # number of overall miss cycles
system.cpu.icache.demand_accesses::.cpu.inst      1084996                       # number of demand (read+write) accesses
system.cpu.icache.demand_accesses::total      1084996                       # number of demand (read+write) accesses
system.cpu.icache.overall_accesses::.cpu.inst      1084996                       # number of overall (read+write) accesses
system.cpu.icache.overall_accesses::total      1084996                       # number of overall (read+write) accesses
system.cpu.icache.demand_miss_rate::.cpu.inst     0.000553                       # miss rate for demand accesses
system.cpu.icache.demand_miss_rate::total     0.000553                       # miss rate for demand accesses
system.cpu.icache.overall_miss_rate::.cpu.inst     0.000553                       # miss rate for overall accesses
system.cpu.icache.overall_miss_rate::total     0.000553                       # miss rate for overall accesses
system.cpu.icache.demand_avg_miss_latency::.cpu.inst        75985                       # average overall miss latency
system.cpu.icache.demand_avg_miss_latency::total        75985                       # average overall miss latency
system.cpu.icache.overall_avg_miss_latency::.cpu.inst        75985                       # average overall miss latency
system.cpu.icache.overall_avg_miss_latency::total        75985                       # average overall miss latency
system.cpu.icache.blocked_cycles::no_mshrs           37                       # number of cycles access was blocked
system.cpu.icache.blocked_cycles::no_targets            0                       # number of cycles access was blocked
system.cpu.icache.blocked::no_mshrs                 2                       # number of cycles access was blocked
system.cpu.icache.blocked::no_targets               0                       # number of cycles access was blocked
system.cpu.icache.avg_blocked_cycles::no_mshrs    18.500000                       # average number of cycles each access was blocked
system.cpu.icache.avg_blocked_cycles::no_targets          nan                       # average number of cycles each access was blocked
system.cpu.icache.writebacks::.writebacks           20                       # number of writebacks
system.cpu.icache.writebacks::total                20                       # number of writebacks
system.cpu.icache.demand_mshr_hits::.cpu.inst          144                       # number of demand (read+write) MSHR hits
system.cpu.icache.demand_mshr_hits::total          144                       # number of demand (read+write) MSHR hits
system.cpu.icache.overall_mshr_hits::.cpu.inst          144                       # number of overall MSHR hits
system.cpu.icache.overall_mshr_hits::total          144                       # number of overall MSHR hits
system.cpu.icache.demand_mshr_misses::.cpu.inst          456                       # number of demand (read+write) MSHR misses
system.cpu.icache.demand_mshr_misses::total          456                       # number of demand (read+write) MSHR misses
system.cpu.icache.overall_mshr_misses::.cpu.inst          456                       # number of overall MSHR misses
system.cpu.icache.overall_mshr_misses::total          456                       # number of overall MSHR misses
system.cpu.icache.demand_mshr_miss_latency::.cpu.inst     36846500                       # number of demand (read+write) MSHR miss cycles
system.cpu.icache.demand_mshr_miss_latency::total     36846500                       # number of demand (read+write) MSHR miss cycles
system.cpu.icache.overall_mshr_miss_latency::.cpu.inst     36846500                       # number of overall MSHR miss cycles
system.cpu.icache.overall_mshr_miss_latency::total     36846500                       # number of overall MSHR miss cycles
system.cpu.icache.demand_mshr_miss_rate::.cpu.inst     0.000420                       # mshr miss rate for demand accesses
system.cpu.icache.demand_mshr_miss_rate::total     0.000420                       # mshr miss rate for demand accesses
system.cpu.icache.overall_mshr_miss_rate::.cpu.inst     0.000420                       # mshr miss rate for overall accesses
system.cpu.icache.overall_mshr_miss_rate::total     0.000420                       # mshr miss rate for overall accesses
system.cpu.icache.demand_avg_mshr_miss_latency::.cpu.inst 80803.728070                       # average overall mshr miss latency
system.cpu.icache.demand_avg_mshr_miss_latency::total 80803.728070                       # average overall mshr miss latency
system.cpu.icache.overall_avg_mshr_miss_latency::.cpu.inst 80803.728070                       # average overall mshr miss latency
system.cpu.icache.overall_avg_mshr_miss_latency::total 80803.728070                       # average overall mshr miss latency
system.cpu.icache.replacements                     20                       # number of replacements
system.cpu.icache.ReadReq_hits::.cpu.inst      1084396                       # number of ReadReq hits
system.cpu.icache.ReadReq_hits::total         1084396                       # number of ReadReq hits
system.cpu.icache.ReadReq_misses::.cpu.inst          600                       # number of ReadReq misses
system.cpu.icache.ReadReq_misses::total           600                       # number of ReadReq misses
system.cpu.icache.ReadReq_miss_latency::.cpu.inst     45591000                       # number of ReadReq miss cycles
system.cpu.icache.ReadReq_miss_latency::total     45591000                       # number of ReadReq miss cycles
system.cpu.icache.ReadReq_accesses::.cpu.inst      1084996                       # number of ReadReq accesses(hits+misses)
system.cpu.icache.ReadReq_accesses::total      1084996                       # number of ReadReq accesses(hits+misses)
system.cpu.icache.ReadReq_miss_rate::.cpu.inst     0.000553                       # miss rate for ReadReq accesses
system.cpu.icache.ReadReq_miss_rate::total     0.000553                       # miss rate for ReadReq accesses
system.cpu.icache.ReadReq_avg_miss_latency::.cpu.inst        75985                       # average ReadReq miss latency
system.cpu.icache.ReadReq_avg_miss_latency::total        75985                       # average ReadReq miss latency
system.cpu.icache.ReadReq_mshr_hits::.cpu.inst          144                       # number of ReadReq MSHR hits
system.cpu.icache.ReadReq_mshr_hits::total          144                       # number of ReadReq MSHR hits
system.cpu.icache.ReadReq_mshr_misses::.cpu.inst          456                       # number of ReadReq MSHR misses
system.cpu.icache.ReadReq_mshr_misses::total          456                       # number of ReadReq MSHR misses
system.cpu.icache.ReadReq_mshr_miss_latency::.cpu.inst     36846500                       # number of ReadReq MSHR miss cycles
system.cpu.icache.ReadReq_mshr_miss_latency::total     36846500                       # number of ReadReq MSHR miss cycles
system.cpu.icache.ReadReq_mshr_miss_rate::.cpu.inst     0.000420                       # mshr miss rate for ReadReq accesses
system.cpu.icache.ReadReq_mshr_miss_rate::total     0.000420                       # mshr miss rate for ReadReq accesses
system.cpu.icache.ReadReq_avg_mshr_miss_latency::.cpu.inst 80803.728070                       # average ReadReq mshr miss latency
system.cpu.icache.ReadReq_avg_mshr_miss_latency::total 80803.728070                       # average ReadReq mshr miss latency
system.cpu.icache.power_state.pwrStateResidencyTicks::UNDEFINED   2036239000                       # Cumulative time (in ticks) in various power states
system.cpu.icache.tags.tagsinuse           393.044765                       # Cycle average of tags in use
system.cpu.icache.tags.total_refs             1084852                       # Total number of references to valid blocks.
system.cpu.icache.tags.sampled_refs               456                       # Sample count of references to valid blocks.
system.cpu.icache.tags.avg_refs           2379.061404                       # Average number of references to valid blocks.
system.cpu.icache.tags.warmup_cycle             87500                       # Cycle when the warmup percentage was hit.
system.cpu.icache.tags.occ_blocks::.cpu.inst   393.044765                       # Average occupied blocks per requestor
system.cpu.icache.tags.occ_percent::.cpu.inst     0.383833                       # Average percentage of cache occupancy
system.cpu.icache.tags.occ_percent::total     0.383833                       # Average percentage of cache occupancy
system.cpu.icache.tags.occ_task_id_blocks::1024          436                       # Occupied blocks per task id
system.cpu.icache.tags.age_task_id_blocks_1024::0           42                       # Occupied blocks per task id
system.cpu.icache.tags.age_task_id_blocks_1024::2            1                       # Occupied blocks per task id
system.cpu.icache.tags.age_task_id_blocks_1024::3          393                       # Occupied blocks per task id
system.cpu.icache.tags.occ_task_id_percent::1024     0.425781                       # Percentage of cache occupancy per task id
system.cpu.icache.tags.tag_accesses           2170448                       # Number of tag accesses
system.cpu.icache.tags.data_accesses          2170448                       # Number of data accesses
system.cpu.icache.tags.power_state.pwrStateResidencyTicks::UNDEFINED   2036239000                       # Cumulative time (in ticks) in various power states
system.cpu.interrupts.clk_domain.clock           8000                       # Clock period in ticks
system.cpu.itb.rdAccesses                           0                       # TLB accesses on read requests
system.cpu.itb.wrAccesses                     1085145                       # TLB accesses on write requests
system.cpu.itb.rdMisses                             0                       # TLB misses on read requests
system.cpu.itb.wrMisses                           192                       # TLB misses on write requests
system.cpu.itb.walker.power_state.pwrStateResidencyTicks::UNDEFINED   2036239000                       # Cumulative time (in ticks) in various power states
system.cpu.itb_walker_cache.blocked_cycles::no_mshrs            0                       # number of cycles access was blocked
system.cpu.itb_walker_cache.blocked_cycles::no_targets            0                       # number of cycles access was blocked
system.cpu.itb_walker_cache.blocked::no_mshrs            0                       # number of cycles access was blocked
system.cpu.itb_walker_cache.blocked::no_targets            0                       # number of cycles access was blocked
system.cpu.itb_walker_cache.avg_blocked_cycles::no_mshrs          nan                       # average number of cycles each access was blocked
system.cpu.itb_walker_cache.avg_blocked_cycles::no_targets          nan                       # average number of cycles each access was blocked
system.cpu.itb_walker_cache.replacements            0                       # number of replacements
system.cpu.itb_walker_cache.power_state.pwrStateResidencyTicks::UNDEFINED   2036239000                       # Cumulative time (in ticks) in various power states
system.cpu.itb_walker_cache.tags.tagsinuse            0                       # Cycle average of tags in use
system.cpu.itb_walker_cache.tags.total_refs            0                       # Total number of references to valid blocks.
system.cpu.itb_walker_cache.tags.sampled_refs            0                       # Sample count of references to valid blocks.
system.cpu.itb_walker_cache.tags.avg_refs          nan                       # Average number of references to valid blocks.
system.cpu.itb_walker_cache.tags.warmup_cycle            0                       # Cycle when the warmup percentage was hit.
system.cpu.itb_walker_cache.tags.tag_accesses            0                       # Number of tag accesses
system.cpu.itb_walker_cache.tags.data_accesses            0                       # Number of data accesses
system.cpu.itb_walker_cache.tags.power_state.pwrStateResidencyTicks::UNDEFINED   2036239000                       # Cumulative time (in ticks) in various power states
system.cpu.lsq0.forwLoads                         204                       # Number of loads that had data forwarded from stores
system.cpu.lsq0.squashedLoads                    2629                       # Number of loads squashed
system.cpu.lsq0.ignoredResponses                    2                       # Number of memory responses ignored because the instruction is squashed
system.cpu.lsq0.memOrderViolation                  10                       # Number of memory ordering violations
system.cpu.lsq0.squashedStores                    932                       # Number of stores squashed
system.cpu.lsq0.rescheduledLoads                    0                       # Number of loads that were rescheduled
system.cpu.lsq0.blockedByCache                   1708                       # Number of times an access to memory failed due to the cache being blocked
system.cpu.power_state.pwrStateResidencyTicks::ON   2036239000                       # Cumulative time (in ticks) in various power states
system.cpu.rename.squashCycles                    903                       # Number of cycles rename is squashing
system.cpu.rename.idleCycles                  1599991                       # Number of cycles rename is idle
system.cpu.rename.blockCycles                   49496                       # Number of cycles rename is blocking
system.cpu.rename.serializeStallCycles             35                       # count of cycles rename stalledfor serializing inst
system.cpu.rename.runCycles                   2063667                       # Number of cycles rename is running
system.cpu.rename.unblockCycles                320619                       # Number of cycles rename is unblocking
system.cpu.rename.renamedInsts               14494604                       # Number of instructions processed by rename
system.cpu.rename.ROBFullEvents                 23044                       # Number of times rename has blocked due to ROB full
system.cpu.rename.IQFullEvents                 157733                       # Number of times rename has blocked due to IQ full
system.cpu.rename.LQFullEvents                 292132                       # Number of times rename has blocked due to LQ full
system.cpu.rename.SQFullEvents                   6526                       # Number of times rename has blocked due to SQ full
system.cpu.rename.renamedOperands            15810060                       # Number of destination operands rename has renamed
system.cpu.rename.lookups                    26337339                       # Number of register rename lookups that rename has made
system.cpu.rename.intLookups                  8115959                       # Number of integer rename lookups
system.cpu.rename.fpLookups                  13371192                       # Number of floating rename lookups
system.cpu.rename.committedMaps              15785244                       # Number of HB maps that are committed
system.cpu.rename.undoneMaps                    24802                       # Number of HB maps that are undone due to squashing
system.cpu.rename.serializing                       4                       # count of serializing insts renamed
system.cpu.rename.tempSerializing                   4                       # count of temporary serializing insts renamed
system.cpu.rename.skidInsts                     68982                       # count of insts added to the skid buffer
system.cpu.rob.reads                         17406772                       # The number of ROB reads
system.cpu.rob.writes                        28977732                       # The number of ROB writes
system.cpu.thread_0.numInsts                  8104173                       # Number of Instructions committed
system.cpu.thread_0.numOps                   14470629                       # Number of Ops committed
system.cpu.thread_0.numMemRefs                      0                       # Number of Memory References
system.cpu_clk_domain.clock                       500                       # Clock period in ticks
system.cpu_voltage_domain.voltage                   1                       # Voltage in Volts
system.l2.demand_hits::.cpu.inst                    2                       # number of demand (read+write) hits
system.l2.demand_hits::.cpu.data                44550                       # number of demand (read+write) hits
system.l2.demand_hits::total                    44552                       # number of demand (read+write) hits
system.l2.overall_hits::.cpu.inst                   2                       # number of overall hits
system.l2.overall_hits::.cpu.data               44550                       # number of overall hits
system.l2.overall_hits::total                   44552                       # number of overall hits
system.l2.demand_misses::.cpu.inst                454                       # number of demand (read+write) misses
system.l2.demand_misses::.cpu.data               4316                       # number of demand (read+write) misses
system.l2.demand_misses::total                   4770                       # number of demand (read+write) misses
system.l2.overall_misses::.cpu.inst               454                       # number of overall misses
system.l2.overall_misses::.cpu.data              4316                       # number of overall misses
system.l2.overall_misses::total                  4770                       # number of overall misses
system.l2.demand_miss_latency::.cpu.inst     36136500                       # number of demand (read+write) miss cycles
system.l2.demand_miss_latency::.cpu.data    330958000                       # number of demand (read+write) miss cycles
system.l2.demand_miss_latency::total        367094500                       # number of demand (read+write) miss cycles
system.l2.overall_miss_latency::.cpu.inst     36136500                       # number of overall miss cycles
system.l2.overall_miss_latency::.cpu.data    330958000                       # number of overall miss cycles
system.l2.overall_miss_latency::total       367094500                       # number of overall miss cycles
system.l2.demand_accesses::.cpu.inst              456                       # number of demand (read+write) accesses
system.l2.demand_accesses::.cpu.data            48866                       # number of demand (read+write) accesses
system.l2.demand_accesses::total                49322                       # number of demand (read+write) accesses
system.l2.overall_accesses::.cpu.inst             456                       # number of overall (read+write) accesses
system.l2.overall_accesses::.cpu.data           48866                       # number of overall (read+write) accesses
system.l2.overall_accesses::total               49322                       # number of overall (read+write) accesses
system.l2.demand_miss_rate::.cpu.inst        0.995614                       # miss rate for demand accesses
system.l2.demand_miss_rate::.cpu.data        0.088323                       # miss rate for demand accesses
system.l2.demand_miss_rate::total            0.096711                       # miss rate for demand accesses
system.l2.overall_miss_rate::.cpu.inst       0.995614                       # miss rate for overall accesses
system.l2.overall_miss_rate::.cpu.data       0.088323                       # miss rate for overall accesses
system.l2.overall_miss_rate::total           0.096711                       # miss rate for overall accesses
system.l2.demand_avg_miss_latency::.cpu.inst 79595.814978                       # average overall miss latency
system.l2.demand_avg_miss_latency::.cpu.data 76681.649676                       # average overall miss latency
system.l2.demand_avg_miss_latency::total 76959.014675                       # average overall miss latency
system.l2.overall_avg_miss_latency::.cpu.inst 79595.814978                       # average overall miss latency
system.l2.overall_avg_miss_latency::.cpu.data 76681.649676                       # average overall miss latency
system.l2.overall_avg_miss_latency::total 76959.014675                       # average overall miss latency
system.l2.blocked_cycles::no_mshrs                  0                       # number of cycles access was blocked
system.l2.blocked_cycles::no_targets                0                       # number of cycles access was blocked
[...]
system.mem_ctrls.dram.bw_total::.cpu.data    135654017                       # Total bandwidth to/from this memory (bytes/s)
system.mem_ctrls.dram.bw_total::total       150363489                       # Total bandwidth to/from this memory (bytes/s)
system.mem_ctrls.dram.readBursts                 4768                       # Number of DRAM read bursts
system.mem_ctrls.dram.writeBursts                   0                       # Number of DRAM write bursts
system.mem_ctrls.dram.perBankRdBursts::0          224                       # Per bank write bursts
system.mem_ctrls.dram.perBankRdBursts::1          510                       # Per bank write bursts
system.mem_ctrls.dram.perBankRdBursts::2          474                       # Per bank write bursts
system.mem_ctrls.dram.perBankRdBursts::3          441                       # Per bank write bursts
system.mem_ctrls.dram.perBankRdBursts::4          409                       # Per bank write bursts
system.mem_ctrls.dram.perBankRdBursts::5          382                       # Per bank write bursts
system.mem_ctrls.dram.perBankRdBursts::6          415                       # Per bank write bursts
system.mem_ctrls.dram.perBankRdBursts::7          336                       # Per bank write bursts
system.mem_ctrls.dram.perBankRdBursts::8          301                       # Per bank write bursts
system.mem_ctrls.dram.perBankRdBursts::9          182                       # Per bank write bursts
system.mem_ctrls.dram.perBankRdBursts::10          146                       # Per bank write bursts
system.mem_ctrls.dram.perBankRdBursts::11          201                       # Per bank write bursts
system.mem_ctrls.dram.perBankRdBursts::12          184                       # Per bank write bursts
system.mem_ctrls.dram.perBankRdBursts::13          140                       # Per bank write bursts
system.mem_ctrls.dram.perBankRdBursts::14          186                       # Per bank write bursts
system.mem_ctrls.dram.perBankRdBursts::15          237                       # Per bank write bursts
system.mem_ctrls.dram.perBankWrBursts::0            0                       # Per bank write bursts
system.mem_ctrls.dram.perBankWrBursts::1            0                       # Per bank write bursts
system.mem_ctrls.dram.perBankWrBursts::2            0                       # Per bank write bursts
system.mem_ctrls.dram.perBankWrBursts::3            0                       # Per bank write bursts
system.mem_ctrls.dram.perBankWrBursts::4            0                       # Per bank write bursts
system.mem_ctrls.dram.perBankWrBursts::5            0                       # Per bank write bursts
system.mem_ctrls.dram.perBankWrBursts::6            0                       # Per bank write bursts
system.mem_ctrls.dram.perBankWrBursts::7            0                       # Per bank write bursts
system.mem_ctrls.dram.perBankWrBursts::8            0                       # Per bank write bursts
system.mem_ctrls.dram.perBankWrBursts::9            0                       # Per bank write bursts
system.mem_ctrls.dram.perBankWrBursts::10            0                       # Per bank write bursts
system.mem_ctrls.dram.perBankWrBursts::11            0                       # Per bank write bursts
system.mem_ctrls.dram.perBankWrBursts::12            0                       # Per bank write bursts
system.mem_ctrls.dram.perBankWrBursts::13            0                       # Per bank write bursts
system.mem_ctrls.dram.perBankWrBursts::14            0                       # Per bank write bursts
system.mem_ctrls.dram.perBankWrBursts::15            0                       # Per bank write bursts
system.mem_ctrls.dram.totQLat                34651250                       # Total ticks spent queuing
system.mem_ctrls.dram.totBusLat              23840000                       # Total ticks spent in databus transfers
system.mem_ctrls.dram.totMemAccLat          124051250                       # Total ticks spent from burst creation until serviced by the DRAM
system.mem_ctrls.dram.avgQLat                 7267.46                       # Average queueing delay per DRAM burst
system.mem_ctrls.dram.avgBusLat               5000.00                       # Average bus latency per DRAM burst
system.mem_ctrls.dram.avgMemAccLat           26017.46                       # Average memory access latency per DRAM burst
system.mem_ctrls.dram.readRowHits                4100                       # Number of row buffer hits during reads
system.mem_ctrls.dram.writeRowHits                  0                       # Number of row buffer hits during writes
system.mem_ctrls.dram.readRowHitRate            85.99                       # Row buffer hit rate for reads
system.mem_ctrls.dram.writeRowHitRate             nan                       # Row buffer hit rate for writes
system.mem_ctrls.dram.bytesPerActivate::samples          657                       # Bytes accessed per row activation
system.mem_ctrls.dram.bytesPerActivate::mean   460.761035                       # Bytes accessed per row activation
system.mem_ctrls.dram.bytesPerActivate::gmean   307.024452                       # Bytes accessed per row activation
system.mem_ctrls.dram.bytesPerActivate::stdev   349.122427                       # Bytes accessed per row activation
system.mem_ctrls.dram.bytesPerActivate::0-127          126     19.18%     19.18% # Bytes accessed per row activation
system.mem_ctrls.dram.bytesPerActivate::128-255          109     16.59%     35.77% # Bytes accessed per row activation
system.mem_ctrls.dram.bytesPerActivate::256-383           31      4.72%     40.49% # Bytes accessed per row activation
system.mem_ctrls.dram.bytesPerActivate::384-511          104     15.83%     56.32% # Bytes accessed per row activation
system.mem_ctrls.dram.bytesPerActivate::512-639          101     15.37%     71.69% # Bytes accessed per row activation
system.mem_ctrls.dram.bytesPerActivate::640-767           20      3.04%     74.73% # Bytes accessed per row activation
system.mem_ctrls.dram.bytesPerActivate::768-895           16      2.44%     77.17% # Bytes accessed per row activation
system.mem_ctrls.dram.bytesPerActivate::896-1023           33      5.02%     82.19% # Bytes accessed per row activation
system.mem_ctrls.dram.bytesPerActivate::1024-1151          117     17.81%    100.00% # Bytes accessed per row activation
system.mem_ctrls.dram.bytesPerActivate::total          657                       # Bytes accessed per row activation
system.mem_ctrls.dram.bytesRead                305152                       # Total number of bytes read from DRAM
system.mem_ctrls.dram.bytesWritten                  0                       # Total number of bytes written to DRAM
system.mem_ctrls.dram.avgRdBW              149.860601                       # Average DRAM read bandwidth in MiBytes/s
system.mem_ctrls.dram.avgWrBW                       0                       # Average DRAM write bandwidth in MiBytes/s
system.mem_ctrls.dram.peakBW                 12800.00                       # Theoretical peak bandwidth in MiByte/s
system.mem_ctrls.dram.busUtil                    1.17                       # Data bus utilization in percentage
system.mem_ctrls.dram.busUtilRead                1.17                       # Data bus utilization in percentage for reads
system.mem_ctrls.dram.busUtilWrite               0.00                       # Data bus utilization in percentage for writes
system.mem_ctrls.dram.pageHitRate               85.99                       # Row buffer hit rate, read and write combined
system.mem_ctrls.dram.power_state.pwrStateResidencyTicks::UNDEFINED   2036239000                       # Cumulative time (in ticks) in various power states
system.mem_ctrls.dram.rank0.actEnergy         3234420                       # Energy for activate commands per rank (pJ)
system.mem_ctrls.dram.rank0.preEnergy         1696365                       # Energy for precharge commands per rank (pJ)
system.mem_ctrls.dram.rank0.readEnergy       22783740                       # Energy for read commands per rank (pJ)
system.mem_ctrls.dram.rank0.writeEnergy             0                       # Energy for write commands per rank (pJ)
system.mem_ctrls.dram.rank0.refreshEnergy 160421040.000000                       # Energy for refresh commands per rank (pJ)
system.mem_ctrls.dram.rank0.actBackEnergy    438950160                       # Energy for active background per rank (pJ)
system.mem_ctrls.dram.rank0.preBackEnergy    412273920                       # Energy for precharge background per rank (pJ)
system.mem_ctrls.dram.rank0.actPowerDownEnergy            0                       # Energy for active power-down per rank (pJ)
system.mem_ctrls.dram.rank0.prePowerDownEnergy            0                       # Energy for precharge power-down per rank (pJ)
system.mem_ctrls.dram.rank0.selfRefreshEnergy            0                       # Energy for self refresh per rank (pJ)
system.mem_ctrls.dram.rank0.totalEnergy    1039359645                       # Total energy per rank (pJ)
system.mem_ctrls.dram.rank0.averagePower   510.431067                       # Core power per rank (mW)
system.mem_ctrls.dram.rank0.totalIdleTime            0                       # Total Idle time Per DRAM Rank
system.mem_ctrls.dram.rank0.pwrStateTime::IDLE   1067234750                       # Time in different power states
system.mem_ctrls.dram.rank0.pwrStateTime::REF     67860000                       # Time in different power states
system.mem_ctrls.dram.rank0.pwrStateTime::SREF            0                       # Time in different power states
system.mem_ctrls.dram.rank0.pwrStateTime::PRE_PDN            0                       # Time in different power states
system.mem_ctrls.dram.rank0.pwrStateTime::ACT    901144250                       # Time in different power states
system.mem_ctrls.dram.rank0.pwrStateTime::ACT_PDN            0                       # Time in different power states
system.mem_ctrls.dram.rank1.actEnergy         1535100                       # Energy for activate commands per rank (pJ)
system.mem_ctrls.dram.rank1.preEnergy          796950                       # Energy for precharge commands per rank (pJ)
system.mem_ctrls.dram.rank1.readEnergy       11259780                       # Energy for read commands per rank (pJ)
system.mem_ctrls.dram.rank1.writeEnergy             0                       # Energy for write commands per rank (pJ)
system.mem_ctrls.dram.rank1.refreshEnergy 160421040.000000                       # Energy for refresh commands per rank (pJ)
system.mem_ctrls.dram.rank1.actBackEnergy    154635870                       # Energy for active background per rank (pJ)
system.mem_ctrls.dram.rank1.preBackEnergy    651696480                       # Energy for precharge background per rank (pJ)
system.mem_ctrls.dram.rank1.actPowerDownEnergy            0                       # Energy for active power-down per rank (pJ)
system.mem_ctrls.dram.rank1.prePowerDownEnergy            0                       # Energy for precharge power-down per rank (pJ)
system.mem_ctrls.dram.rank1.selfRefreshEnergy            0                       # Energy for self refresh per rank (pJ)
system.mem_ctrls.dram.rank1.totalEnergy     980345220                       # Total energy per rank (pJ)
system.mem_ctrls.dram.rank1.averagePower   481.448995                       # Core power per rank (mW)
system.mem_ctrls.dram.rank1.totalIdleTime            0                       # Total Idle time Per DRAM Rank
system.mem_ctrls.dram.rank1.pwrStateTime::IDLE   1692568500                       # Time in different power states
system.mem_ctrls.dram.rank1.pwrStateTime::REF     67860000                       # Time in different power states
system.mem_ctrls.dram.rank1.pwrStateTime::SREF            0                       # Time in different power states
system.mem_ctrls.dram.rank1.pwrStateTime::PRE_PDN            0                       # Time in different power states
system.mem_ctrls.dram.rank1.pwrStateTime::ACT    275810500                       # Time in different power states
system.mem_ctrls.dram.rank1.pwrStateTime::ACT_PDN            0                       # Time in different power states
system.mem_ctrls.power_state.pwrStateResidencyTicks::UNDEFINED   2036239000                       # Cumulative time (in ticks) in various power states
system.membus.trans_dist::ReadResp               4663                       # Transaction distribution
system.membus.trans_dist::WritebackDirty           14                       # Transaction distribution
system.membus.trans_dist::CleanEvict             1034                       # Transaction distribution
system.membus.trans_dist::ReadExReq               107                       # Transaction distribution
system.membus.trans_dist::ReadExResp              107                       # Transaction distribution
system.membus.trans_dist::ReadSharedReq          4663                       # Transaction distribution
system.membus.pkt_count_system.l2.mem_side_port::system.mem_ctrls.port        10588                       # Packet count per connected requestor and responder (bytes)
system.membus.pkt_count_system.l2.mem_side_port::total        10588                       # Packet count per connected requestor and responder (bytes)
system.membus.pkt_count::total                  10588                       # Packet count per connected requestor and responder (bytes)
system.membus.pkt_size_system.l2.mem_side_port::system.mem_ctrls.port       306176                       # Cumulative packet size per connected requestor and responder (bytes)
system.membus.pkt_size_system.l2.mem_side_port::total       306176                       # Cumulative packet size per connected requestor and responder (bytes)
system.membus.pkt_size::total                  306176                       # Cumulative packet size per connected requestor and responder (bytes)
system.membus.snoops                                0                       # Total snoops (count)
system.membus.snoopTraffic                          0                       # Total snoop traffic (bytes)
system.membus.snoop_fanout::samples              4770                       # Request fanout histogram
system.membus.snoop_fanout::mean                    0                       # Request fanout histogram
system.membus.snoop_fanout::stdev                   0                       # Request fanout histogram
system.membus.snoop_fanout::underflows              0      0.00%      0.00% # Request fanout histogram
system.membus.snoop_fanout::0                    4770    100.00%    100.00% # Request fanout histogram
system.membus.snoop_fanout::1                       0      0.00%    100.00% # Request fanout histogram
system.membus.snoop_fanout::overflows               0      0.00%    100.00% # Request fanout histogram
system.membus.snoop_fanout::min_value               0                       # Request fanout histogram
system.membus.snoop_fanout::max_value               0                       # Request fanout histogram
system.membus.snoop_fanout::total                4770                       # Request fanout histogram
system.membus.power_state.pwrStateResidencyTicks::UNDEFINED   2036239000                       # Cumulative time (in ticks) in various power states
system.membus.reqLayer2.occupancy             6514000                       # Layer occupancy (ticks)
system.membus.reqLayer2.utilization               0.3                       # Layer utilization (%)
system.membus.respLayer1.occupancy           25102000                       # Layer occupancy (ticks)
system.membus.respLayer1.utilization              1.2                       # Layer utilization (%)
system.tol2bus.trans_dist::ReadResp             44824                       # Transaction distribution
system.tol2bus.trans_dist::WritebackDirty        37124                       # Transaction distribution
system.tol2bus.trans_dist::WritebackClean           20                       # Transaction distribution
system.tol2bus.trans_dist::CleanEvict           12190                       # Transaction distribution
system.tol2bus.trans_dist::ReadExReq             4498                       # Transaction distribution
system.tol2bus.trans_dist::ReadExResp            4498                       # Transaction distribution
system.tol2bus.trans_dist::ReadCleanReq           456                       # Transaction distribution
system.tol2bus.trans_dist::ReadSharedReq        44368                       # Transaction distribution
system.tol2bus.pkt_count_system.cpu.icache.mem_side_port::system.l2.cpu_side_port          932                       # Packet count per connected requestor and responder (bytes)
system.tol2bus.pkt_count_system.cpu.dcache.mem_side_port::system.l2.cpu_side_port       145574                       # Packet count per connected requestor and responder (bytes)
system.tol2bus.pkt_count::total                146506                       # Packet count per connected requestor and responder (bytes)
system.tol2bus.pkt_size_system.cpu.icache.mem_side_port::system.l2.cpu_side_port        30464                       # Cumulative packet size per connected requestor and responder (bytes)
system.tol2bus.pkt_size_system.cpu.dcache.mem_side_port::system.l2.cpu_side_port      5502464                       # Cumulative packet size per connected requestor and responder (bytes)
system.tol2bus.pkt_size::total                5532928                       # Cumulative packet size per connected requestor and responder (bytes)
system.tol2bus.snoops                            1472                       # Total snoops (count)
system.tol2bus.snoopTraffic                       896                       # Total snoop traffic (bytes)
system.tol2bus.snoop_fanout::samples            50794                       # Request fanout histogram
system.tol2bus.snoop_fanout::mean            0.028586                       # Request fanout histogram
system.tol2bus.snoop_fanout::stdev           0.166642                       # Request fanout histogram
system.tol2bus.snoop_fanout::underflows             0      0.00%      0.00% # Request fanout histogram
system.tol2bus.snoop_fanout::0                  49342     97.14%     97.14% # Request fanout histogram
system.tol2bus.snoop_fanout::1                   1452      2.86%    100.00% # Request fanout histogram
system.tol2bus.snoop_fanout::2                      0      0.00%    100.00% # Request fanout histogram
system.tol2bus.snoop_fanout::3                      0      0.00%    100.00% # Request fanout histogram
system.tol2bus.snoop_fanout::4                      0      0.00%    100.00% # Request fanout histogram
system.tol2bus.snoop_fanout::overflows              0      0.00%    100.00% # Request fanout histogram
system.tol2bus.snoop_fanout::min_value              0                       # Request fanout histogram
system.tol2bus.snoop_fanout::max_value              1                       # Request fanout histogram
system.tol2bus.snoop_fanout::total              50794                       # Request fanout histogram
system.tol2bus.power_state.pwrStateResidencyTicks::UNDEFINED   2036239000                       # Cumulative time (in ticks) in various power states
system.tol2bus.reqLayer0.occupancy           85722000                       # Layer occupancy (ticks)
system.tol2bus.reqLayer0.utilization              4.2                       # Layer utilization (%)
system.tol2bus.respLayer0.occupancy            684000                       # Layer occupancy (ticks)
system.tol2bus.respLayer0.utilization             0.0                       # Layer utilization (%)
system.tol2bus.respLayer1.occupancy          73299000                       # Layer occupancy (ticks)
system.tol2bus.respLayer1.utilization             3.6                       # Layer utilization (%)
system.voltage_domain.voltage                       1                       # Voltage in Volts

---------- End Simulation Statistics   ----------
