
---------- Begin Simulation Statistics ----------
final_tick                                 2208663852                       # Number of ticks from beginning of simulation (restored from checkpoints and never reset)
host_inst_rate                                 253473                       # Simulator instruction rate (inst/s)
host_mem_usage                                 654584                       # Number of bytes of host memory used
host_op_rate                                   452594                       # Simulator op (including micro ops) rate (op/s)
host_seconds                                    31.97                       # Real time elapsed on the host
host_tick_rate                               69079690                       # Simulator tick rate (ticks/s)
sim_freq                                 1000000000000                       # Frequency of simulated ticks
sim_insts                                     8104173                       # Number of instructions simulated
sim_ops                                      14470629                       # Number of ops (including micro ops) simulated
sim_seconds                                  0.002209                       # Number of seconds simulated
sim_ticks                                  2208663852                       # Number of ticks simulated
system.cpu.cc_regfile_reads                   1486332                       # number of cc regfile reads
system.cpu.cc_regfile_writes                  1779135                       # number of cc regfile writes
system.cpu.committedInsts                     8104173                       # Number of Instructions Simulated
system.cpu.committedOps                      14470629                       # Number of Ops (including micro ops) Simulated
system.cpu.cpi                               0.490169                       # CPI: Cycles Per Instruction
system.cpu.cpi_total                         0.490169                       # CPI: Total CPI of All Threads
system.cpu.fp_regfile_reads                  13370861                       # number of floating regfile reads
system.cpu.fp_regfile_writes                 11863813                       # number of floating regfile writes
system.cpu.idleCycles                           34779                       # Total number of cycles that the CPU has spent unscheduled due to idling
system.cpu.iew.branchMispredicts                  971                       # Number of branch mispredicts detected at execute
system.cpu.iew.exec_branches                   297485                       # Number of branches executed
system.cpu.iew.exec_nop                             0                       # number of nop insts executed
system.cpu.iew.exec_rate                     3.648537                       # Inst execution rate
system.cpu.iew.exec_refs                      2769865                       # number of memory reference insts executed
system.cpu.iew.exec_stores                     133173                       # Number of stores executed
system.cpu.iew.exec_swp                             0                       # number of swp insts executed
system.cpu.iew.iewBlockCycles                    6683                       # Number of cycles IEW is blocking
system.cpu.iew.iewDispLoadInsts               2625542                       # Number of dispatched load instructions
system.cpu.iew.iewDispNonSpecInsts                  2                       # Number of dispatched non-speculative instructions
system.cpu.iew.iewDispSquashedInsts                88                       # Number of squashed instructions skipped by dispatch
system.cpu.iew.iewDispStoreInsts               133601                       # Number of dispatched store instructions
system.cpu.iew.iewDispatchedInsts            14487650                       # Number of instructions dispatched to IQ
system.cpu.iew.iewExecLoadInsts               2636692                       # Number of load instructions executed
system.cpu.iew.iewExecSquashedInsts              2592                       # Number of squashed instructions skipped in execute
system.cpu.iew.iewExecutedInsts              14493513                       # Number of executed instructions
system.cpu.iew.iewIQFullEvents                    998                       # Number of times the IQ has become full, causing a stall
system.cpu.iew.iewIdleCycles                        0                       # Number of cycles IEW is idle
system.cpu.iew.iewLSQFullEvents                 14862                       # Number of times the LSQ has become full, causing a stall
system.cpu.iew.iewSquashCycles                    891                       # Number of cycles IEW is squashing
system.cpu.iew.iewUnblockCycles                 15927                       # Number of cycles IEW is unblocking
system.cpu.iew.memOrderViolationEvents              9                       # Number of memory order violations
system.cpu.iew.predictedNotTakenIncorrect          643                       # Number of branches that were predicted not taken incorrectly
system.cpu.iew.predictedTakenIncorrect            328                       # Number of branches that were predicted taken incorrectly
system.cpu.iew.wb_consumers                   9826953                       # num instructions consuming a value
system.cpu.iew.wb_count                      14480155                       # cumulative count of insts written-back
system.cpu.iew.wb_fanout                     0.683924                       # average fanout of values written-back
system.cpu.iew.wb_producers                   6720891                       # num instructions producing a value
system.cpu.iew.wb_rate                       3.645174                       # insts written-back per cycle
system.cpu.iew.wb_sent                       14480557                       # cumulative count of insts sent to commit
system.cpu.int_regfile_reads                  8124897                       # number of integer regfile reads
system.cpu.int_regfile_writes                 2152381                       # number of integer regfile writes
system.cpu.ipc                               2.040111                       # IPC: Instructions Per Cycle
system.cpu.ipc_total                         2.040111                       # IPC: Total IPC of All Threads
system.cpu.iq.FU_type_0::No_OpClass               994      0.01%      0.01% # Type of FU issued
system.cpu.iq.FU_type_0::IntAlu               2546647     17.57%     17.57% # Type of FU issued
system.cpu.iq.FU_type_0::IntMult                    5      0.00%     17.57% # Type of FU issued
system.cpu.iq.FU_type_0::IntDiv                    21      0.00%     17.57% # Type of FU issued
system.cpu.iq.FU_type_0::FloatAdd             4720919     32.57%     50.14% # Type of FU issued
system.cpu.iq.FU_type_0::FloatCmp                   0      0.00%     50.14% # Type of FU issued
system.cpu.iq.FU_type_0::FloatCvt                   0      0.00%     50.14% # Type of FU issued
system.cpu.iq.FU_type_0::FloatMult                  0      0.00%     50.14% # Type of FU issued
system.cpu.iq.FU_type_0::FloatMultAcc               0      0.00%     50.14% # Type of FU issued
system.cpu.iq.FU_type_0::FloatDiv                   0      0.00%     50.14% # Type of FU issued
system.cpu.iq.FU_type_0::FloatMisc                  0      0.00%     50.14% # Type of FU issued
system.cpu.iq.FU_type_0::FloatSqrt                  0      0.00%     50.14% # Type of FU issued
system.cpu.iq.FU_type_0::SimdAdd                    0      0.00%     50.14% # Type of FU issued
system.cpu.iq.FU_type_0::SimdAddAcc                 0      0.00%     50.14% # Type of FU issued
system.cpu.iq.FU_type_0::SimdAlu                  157      0.00%     50.14% # Type of FU issued
system.cpu.iq.FU_type_0::SimdCmp                    0      0.00%     50.14% # Type of FU issued
system.cpu.iq.FU_type_0::SimdCvt                   47      0.00%     50.14% # Type of FU issued
system.cpu.iq.FU_type_0::SimdMisc              262366      1.81%     51.95% # Type of FU issued
system.cpu.iq.FU_type_0::SimdMult                   0      0.00%     51.95% # Type of FU issued
system.cpu.iq.FU_type_0::SimdMultAcc                0      0.00%     51.95% # Type of FU issued
system.cpu.iq.FU_type_0::SimdShift                  0      0.00%     51.95% # Type of FU issued
system.cpu.iq.FU_type_0::SimdShiftAcc               0      0.00%     51.95% # Type of FU issued
system.cpu.iq.FU_type_0::SimdDiv                    0      0.00%     51.95% # Type of FU issued
system.cpu.iq.FU_type_0::SimdSqrt                   0      0.00%     51.95% # Type of FU issued
system.cpu.iq.FU_type_0::SimdFloatAdd         2097152     14.47%     66.42% # Type of FU issued
system.cpu.iq.FU_type_0::SimdFloatAlu               0      0.00%     66.42% # Type of FU issued
system.cpu.iq.FU_type_0::SimdFloatCmp               0      0.00%     66.42% # Type of FU issued
system.cpu.iq.FU_type_0::SimdFloatCvt               0      0.00%     66.42% # Type of FU issued
system.cpu.iq.FU_type_0::SimdFloatDiv               0      0.00%     66.42% # Type of FU issued
system.cpu.iq.FU_type_0::SimdFloatMisc              0      0.00%     66.42% # Type of FU issued
system.cpu.iq.FU_type_0::SimdFloatMult        2097152     14.47%     80.89% # Type of FU issued
system.cpu.iq.FU_type_0::SimdFloatMultAcc            0      0.00%     80.89% # Type of FU issued
system.cpu.iq.FU_type_0::SimdFloatSqrt              0      0.00%     80.89% # Type of FU issued
system.cpu.iq.FU_type_0::SimdReduceAdd              0      0.00%     80.89% # Type of FU issued
system.cpu.iq.FU_type_0::SimdReduceAlu              0      0.00%     80.89% # Type of FU issued
system.cpu.iq.FU_type_0::SimdReduceCmp              0      0.00%     80.89% # Type of FU issued
system.cpu.iq.FU_type_0::SimdFloatReduceAdd            0      0.00%     80.89% # Type of FU issued
system.cpu.iq.FU_type_0::SimdFloatReduceCmp            0      0.00%     80.89% # Type of FU issued
system.cpu.iq.FU_type_0::SimdAes                    0      0.00%     80.89% # Type of FU issued
system.cpu.iq.FU_type_0::SimdAesMix                 0      0.00%     80.89% # Type of FU issued
system.cpu.iq.FU_type_0::SimdSha1Hash               0      0.00%     80.89% # Type of FU issued
system.cpu.iq.FU_type_0::SimdSha1Hash2              0      0.00%     80.89% # Type of FU issued
system.cpu.iq.FU_type_0::SimdSha256Hash             0      0.00%     80.89% # Type of FU issued
system.cpu.iq.FU_type_0::SimdSha256Hash2            0      0.00%     80.89% # Type of FU issued
system.cpu.iq.FU_type_0::SimdShaSigma2              0      0.00%     80.89% # Type of FU issued
system.cpu.iq.FU_type_0::SimdShaSigma3              0      0.00%     80.89% # Type of FU issued
system.cpu.iq.FU_type_0::SimdPredAlu                0      0.00%     80.89% # Type of FU issued
system.cpu.iq.FU_type_0::MemRead                 2713      0.02%     80.91% # Type of FU issued
system.cpu.iq.FU_type_0::MemWrite                1650      0.01%     80.92% # Type of FU issued
system.cpu.iq.FU_type_0::FloatMemRead         2634688     18.18%     99.09% # Type of FU issued
system.cpu.iq.FU_type_0::FloatMemWrite         131600      0.91%    100.00% # Type of FU issued
system.cpu.iq.FU_type_0::IprAccess                  0      0.00%    100.00% # Type of FU issued
system.cpu.iq.FU_type_0::InstPrefetch               0      0.00%    100.00% # Type of FU issued
system.cpu.iq.FU_type_0::total               14496111                       # Type of FU issued
system.cpu.iq.fp_alu_accesses                12253260                       # Number of floating point alu accesses
system.cpu.iq.fp_inst_queue_reads            24263563                       # Number of floating instruction queue reads
system.cpu.iq.fp_inst_queue_wakeup_accesses     11995446                       # Number of floating instruction queue wakeup accesses
system.cpu.iq.fp_inst_queue_writes           12002455                       # Number of floating instruction queue writes
system.cpu.iq.fu_busy_cnt                      243751                       # FU busy when requested
system.cpu.iq.fu_busy_rate                   0.016815                       # FU busy rate (busy events/executed inst)
system.cpu.iq.fu_full::No_OpClass                   0      0.00%      0.00% # attempts to use FU when none available
system.cpu.iq.fu_full::IntAlu                     202      0.08%      0.08% # attempts to use FU when none available
system.cpu.iq.fu_full::IntMult                      0      0.00%      0.08% # attempts to use FU when none available
system.cpu.iq.fu_full::IntDiv                       0      0.00%      0.08% # attempts to use FU when none available
system.cpu.iq.fu_full::FloatAdd                 82042     33.66%     33.74% # attempts to use FU when none available
system.cpu.iq.fu_full::FloatCmp                     0      0.00%     33.74% # attempts to use FU when none available
system.cpu.iq.fu_full::FloatCvt                     0      0.00%     33.74% # attempts to use FU when none available
system.cpu.iq.fu_full::FloatMult                    0      0.00%     33.74% # attempts to use FU when none available
system.cpu.iq.fu_full::FloatMultAcc                 0      0.00%     33.74% # attempts to use FU when none available
system.cpu.iq.fu_full::FloatDiv                     0      0.00%     33.74% # attempts to use FU when none available
system.cpu.iq.fu_full::FloatMisc                    0      0.00%     33.74% # attempts to use FU when none available
system.cpu.iq.fu_full::FloatSqrt                    0      0.00%     33.74% # attempts to use FU when none available
system.cpu.iq.fu_full::SimdAdd                      0      0.00%     33.74% # attempts to use FU when none available
system.cpu.iq.fu_full::SimdAddAcc                   0      0.00%     33.74% # attempts to use FU when none available
system.cpu.iq.fu_full::SimdAlu                     10      0.00%     33.75% # attempts to use FU when none available
system.cpu.iq.fu_full::SimdCmp                      0      0.00%     33.75% # attempts to use FU when none available
system.cpu.iq.fu_full::SimdCvt                      1      0.00%     33.75% # attempts to use FU when none available
system.cpu.iq.fu_full::SimdMisc                 33369     13.69%     47.44% # attempts to use FU when none available
system.cpu.iq.fu_full::SimdMult                     0      0.00%     47.44% # attempts to use FU when none available
system.cpu.iq.fu_full::SimdMultAcc                  0      0.00%     47.44% # attempts to use FU when none available
system.cpu.iq.fu_full::SimdShift                    0      0.00%     47.44% # attempts to use FU when none available
system.cpu.iq.fu_full::SimdShiftAcc                 0      0.00%     47.44% # attempts to use FU when none available
system.cpu.iq.fu_full::SimdDiv                      0      0.00%     47.44% # attempts to use FU when none available
system.cpu.iq.fu_full::SimdSqrt                     0      0.00%     47.44% # attempts to use FU when none available
system.cpu.iq.fu_full::SimdFloatAdd             33946     13.93%     61.36% # attempts to use FU when none available
system.cpu.iq.fu_full::SimdFloatAlu                 0      0.00%     61.36% # attempts to use FU when none available
system.cpu.iq.fu_full::SimdFloatCmp                 0      0.00%     61.36% # attempts to use FU when none available
system.cpu.iq.fu_full::SimdFloatCvt                 0      0.00%     61.36% # attempts to use FU when none available
system.cpu.iq.fu_full::SimdFloatDiv                 0      0.00%     61.36% # attempts to use FU when none available
system.cpu.iq.fu_full::SimdFloatMisc                0      0.00%     61.36% # attempts to use FU when none available
system.cpu.iq.fu_full::SimdFloatMult            91922     37.71%     99.07% # attempts to use FU when none available
system.cpu.iq.fu_full::SimdFloatMultAcc             0      0.00%     99.07% # attempts to use FU when none available
system.cpu.iq.fu_full::SimdFloatSqrt                0      0.00%     99.07% # attempts to use FU when none available
system.cpu.iq.fu_full::SimdReduceAdd                0      0.00%     99.07% # attempts to use FU when none available
system.cpu.iq.fu_full::SimdReduceAlu                0      0.00%     99.07% # attempts to use FU when none available
system.cpu.iq.fu_full::SimdReduceCmp                0      0.00%     99.07% # attempts to use FU when none available
system.cpu.iq.fu_full::SimdFloatReduceAdd            0      0.00%     99.07% # attempts to use FU when none available
system.cpu.iq.fu_full::SimdFloatReduceCmp            0      0.00%     99.07% # attempts to use FU when none available
system.cpu.iq.fu_full::SimdAes                      0      0.00%     99.07% # attempts to use FU when none available
system.cpu.iq.fu_full::SimdAesMix                   0      0.00%     99.07% # attempts to use FU when none available
system.cpu.iq.fu_full::SimdSha1Hash                 0      0.00%     99.07% # attempts to use FU when none available
system.cpu.iq.fu_full::SimdSha1Hash2                0      0.00%     99.07% # attempts to use FU when none available
system.cpu.iq.fu_full::SimdSha256Hash               0      0.00%     99.07% # attempts to use FU when none available
system.cpu.iq.fu_full::SimdSha256Hash2              0      0.00%     99.07% # attempts to use FU when none available
system.cpu.iq.fu_full::SimdShaSigma2                0      0.00%     99.07% # attempts to use FU when none available
system.cpu.iq.fu_full::SimdShaSigma3                0      0.00%     99.07% # attempts to use FU when none available
system.cpu.iq.fu_full::SimdPredAlu                  0      0.00%     99.07% # attempts to use FU when none available
system.cpu.iq.fu_full::MemRead                     30      0.01%     99.09% # attempts to use FU when none available
system.cpu.iq.fu_full::MemWrite                    18      0.01%     99.09% # attempts to use FU when none available
system.cpu.iq.fu_full::FloatMemRead              2203      0.90%    100.00% # attempts to use FU when none available
system.cpu.iq.fu_full::FloatMemWrite                8      0.00%    100.00% # attempts to use FU when none available
system.cpu.iq.fu_full::IprAccess                    0      0.00%    100.00% # attempts to use FU when none available
system.cpu.iq.fu_full::InstPrefetch                 0      0.00%    100.00% # attempts to use FU when none available
system.cpu.iq.int_alu_accesses                2485608                       # Number of integer alu accesses
system.cpu.iq.int_inst_queue_reads            8910621                       # Number of integer instruction queue reads
system.cpu.iq.int_inst_queue_wakeup_accesses      2484709                       # Number of integer instruction queue wakeup accesses
system.cpu.iq.int_inst_queue_writes           2502210                       # Number of integer instruction queue writes
system.cpu.iq.iqInstsAdded                   14487648                       # Number of instructions added to the IQ (excludes non-spec)
system.cpu.iq.iqInstsIssued                  14496111                       # Number of instructions issued
system.cpu.iq.iqNonSpecInstsAdded                   2                       # Number of non-speculative instructions added to the IQ
system.cpu.iq.iqSquashedInstsExamined           17007                       # Number of squashed instructions iterated over during squash; mainly for profiling
system.cpu.iq.iqSquashedInstsIssued               578                       # Number of squashed instructions issued
system.cpu.iq.iqSquashedNonSpecRemoved              2                       # Number of squashed non-spec instructions that were removed
system.cpu.iq.iqSquashedOperandsExamined        17908                       # Number of squashed operands that are examined and possibly removed from graph
system.cpu.iq.issued_per_cycle::samples       3937639                       # Number of insts issued each cycle
system.cpu.iq.issued_per_cycle::mean         3.681422                       # Number of insts issued each cycle
system.cpu.iq.issued_per_cycle::stdev        2.726777                       # Number of insts issued each cycle
system.cpu.iq.issued_per_cycle::underflows            0      0.00%      0.00% # Number of insts issued each cycle
system.cpu.iq.issued_per_cycle::0              341447      8.67%      8.67% # Number of insts issued each cycle
system.cpu.iq.issued_per_cycle::1             1114841     28.31%     36.98% # Number of insts issued each cycle
system.cpu.iq.issued_per_cycle::2              332650      8.45%     45.43% # Number of insts issued each cycle
system.cpu.iq.issued_per_cycle::3              209933      5.33%     50.76% # Number of insts issued each cycle
system.cpu.iq.issued_per_cycle::4              261993      6.65%     57.42% # Number of insts issued each cycle
system.cpu.iq.issued_per_cycle::5              211975      5.38%     62.80% # Number of insts issued each cycle
system.cpu.iq.issued_per_cycle::6              585857     14.88%     77.68% # Number of insts issued each cycle
system.cpu.iq.issued_per_cycle::7              568362     14.43%     92.11% # Number of insts issued each cycle
system.cpu.iq.issued_per_cycle::8              310581      7.89%    100.00% # Number of insts issued each cycle
system.cpu.iq.issued_per_cycle::overflows            0      0.00%    100.00% # Number of insts issued each cycle
system.cpu.iq.issued_per_cycle::min_value            0                       # Number of insts issued each cycle
system.cpu.iq.issued_per_cycle::max_value            8                       # Number of insts issued each cycle
system.cpu.iq.issued_per_cycle::total         3937639                       # Number of insts issued each cycle
system.cpu.iq.rate                           3.649191                       # Inst issue rate
system.cpu.iq.vec_alu_accesses                      0                       # Number of vector alu accesses
system.cpu.iq.vec_inst_queue_reads                  0                       # Number of vector instruction queue reads
system.cpu.iq.vec_inst_queue_wakeup_accesses            0                       # Number of vector instruction queue wakeup accesses
system.cpu.iq.vec_inst_queue_writes                 0                       # Number of vector instruction queue writes
system.cpu.memDep0.conflictingLoads                27                       # Number of conflicting loads.
system.cpu.memDep0.conflictingStores               13                       # Number of conflicting stores.
system.cpu.memDep0.insertedLoads              2625542                       # Number of loads inserted to the mem dependence unit.
system.cpu.memDep0.insertedStores              133601                       # Number of stores inserted to the mem dependence unit.
system.cpu.misc_regfile_reads                 3365856                       # number of misc regfile reads
system.cpu.numCycles                          3972418                       # number of cpu cycles simulated
system.cpu.numWorkItemsCompleted                    0                       # number of work items this cpu completed
system.cpu.numWorkItemsStarted                      0                       # number of work items this cpu started
system.cpu.timesIdled                             317                       # Number of times that the entire CPU went into an idle state and unscheduled itself
system.cpu.workload.numSyscalls                    10                       # Number of system calls
system.membus.snoop_filter.hit_multi_requests            0                       # Number of requests hitting in the snoop filter with multiple (>1) holders of the requested data.
system.membus.snoop_filter.hit_multi_snoops            0                       # Number of snoops hitting in the snoop filter with multiple (>1) holders of the requested data.
system.membus.snoop_filter.hit_single_requests            0                       # Number of requests hitting in the snoop filter with a single holder of the requested data.
system.membus.snoop_filter.hit_single_snoops            0                       # Number of snoops hitting in the snoop filter with a single holder of the requested data.
system.membus.snoop_filter.tot_requests          3752                       # Total number of requests made to the snoop filter.
system.membus.snoop_filter.tot_snoops               0                       # Total number of snoops made to the snoop filter.
system.tol2bus.snoop_filter.hit_multi_requests            0                       # Number of requests hitting in the snoop filter with multiple (>1) holders of the requested data.
system.tol2bus.snoop_filter.hit_multi_snoops            0                       # Number of snoops hitting in the snoop filter with multiple (>1) holders of the requested data.
system.tol2bus.snoop_filter.hit_single_requests        27009                       # Number of requests hitting in the snoop filter with a single holder of the requested data.
system.tol2bus.snoop_filter.hit_single_snoops            0                       # Number of snoops hitting in the snoop filter with a single holder of the requested data.
system.tol2bus.snoop_filter.tot_requests        55479                       # Total number of requests made to the snoop filter.
system.tol2bus.snoop_filter.tot_snoops              0                       # Total number of snoops made to the snoop filter.
system.clk_domain.clock                          1000                       # Clock period in ticks
system.cpu.branchPred.lookups                  299107                       # Number of BP lookups
system.cpu.branchPred.condPredicted            297937                       # Number of conditional branches predicted
system.cpu.branchPred.condIncorrect               957                       # Number of conditional branches incorrect
system.cpu.branchPred.BTBLookups               264262                       # Number of BTB lookups
system.cpu.branchPred.BTBHits                  263517                       # Number of BTB hits
system.cpu.branchPred.BTBHitPct             99.718083                       # BTB Hit Percentage
system.cpu.branchPred.RASUsed                     281                       # Number of times the RAS was used to get a target.
system.cpu.branchPred.RASIncorrect                  0                       # Number of incorrect RAS predictions.
system.cpu.branchPred.indirectLookups             295                       # Number of indirect predictor lookups.
system.cpu.branchPred.indirectHits                 18                       # Number of indirect target hits.
system.cpu.branchPred.indirectMisses              277                       # Number of indirect misses.
system.cpu.branchPred.indirectMispredicted           90                       # Number of mispredicted indirect branches.
system.cpu.commit.commitSquashedInsts           16899                       # The number of squashed insts skipped by commit
system.cpu.commit.branchMispredicts               871                       # The number of times a branch was mispredicted
system.cpu.commit.numCommittedDist::samples      3935097                       # Number of insts commited each cycle
system.cpu.commit.numCommittedDist::mean     3.677325                       # Number of insts commited each cycle
system.cpu.commit.numCommittedDist::stdev     2.987685                       # Number of insts commited each cycle
system.cpu.commit.numCommittedDist::underflows            0      0.00%      0.00% # Number of insts commited each cycle
system.cpu.commit.numCommittedDist::0          862594     21.92%     21.92% # Number of insts commited each cycle
system.cpu.commit.numCommittedDist::1          568837     14.46%     36.38% # Number of insts commited each cycle
system.cpu.commit.numCommittedDist::2          304745      7.74%     44.12% # Number of insts commited each cycle
system.cpu.commit.numCommittedDist::3           39734      1.01%     45.13% # Number of insts commited each cycle
system.cpu.commit.numCommittedDist::4          393537     10.00%     55.13% # Number of insts commited each cycle
system.cpu.commit.numCommittedDist::5          765588     19.46%     74.59% # Number of insts commited each cycle
system.cpu.commit.numCommittedDist::6           97741      2.48%     77.07% # Number of insts commited each cycle
system.cpu.commit.numCommittedDist::7           34002      0.86%     77.93% # Number of insts commited each cycle
system.cpu.commit.numCommittedDist::8          868319     22.07%    100.00% # Number of insts commited each cycle
system.cpu.commit.numCommittedDist::overflows            0      0.00%    100.00% # Number of insts commited each cycle
system.cpu.commit.numCommittedDist::min_value            0                       # Number of insts commited each cycle
system.cpu.commit.numCommittedDist::max_value            8                       # Number of insts commited each cycle
system.cpu.commit.numCommittedDist::total      3935097                       # Number of insts commited each cycle
system.cpu.commit.instsCommitted              8104173                       # Number of instructions committed
system.cpu.commit.opsCommitted               14470629                       # Number of ops (including micro ops) committed
system.cpu.commit.memRefs                     2755586                       # Number of memory references committed
system.cpu.commit.loads                       2622923                       # Number of loads committed
system.cpu.commit.amos                              0                       # Number of atomic instructions committed
system.cpu.commit.membars                           0                       # Number of memory barriers committed
system.cpu.commit.branches                     296838                       # Number of branches committed
system.cpu.commit.vector                            0                       # Number of committed Vector instructions.
system.cpu.commit.floating                   11994221                       # Number of committed floating point instructions.
system.cpu.commit.integer                     5196288                       # Number of committed integer instructions.
system.cpu.commit.functionCalls                   144                       # Number of function calls committed.
system.cpu.commit.committedInstType_0::No_OpClass          536      0.00%      0.00% # Class of committed instruction
system.cpu.commit.committedInstType_0::IntAlu      2538951     17.55%     17.55% # Class of committed instruction
system.cpu.commit.committedInstType_0::IntMult            5      0.00%     17.55% # Class of committed instruction
system.cpu.commit.committedInstType_0::IntDiv           21      0.00%     17.55% # Class of committed instruction
system.cpu.commit.committedInstType_0::FloatAdd      4718727     32.61%     50.16% # Class of committed instruction
system.cpu.commit.committedInstType_0::FloatCmp            0      0.00%     50.16% # Class of committed instruction
system.cpu.commit.committedInstType_0::FloatCvt            0      0.00%     50.16% # Class of committed instruction
system.cpu.commit.committedInstType_0::FloatMult            0      0.00%     50.16% # Class of committed instruction
system.cpu.commit.committedInstType_0::FloatMultAcc            0      0.00%     50.16% # Class of committed instruction
system.cpu.commit.committedInstType_0::FloatDiv            0      0.00%     50.16% # Class of committed instruction
system.cpu.commit.committedInstType_0::FloatMisc            0      0.00%     50.16% # Class of committed instruction
system.cpu.commit.committedInstType_0::FloatSqrt            0      0.00%     50.16% # Class of committed instruction
system.cpu.commit.committedInstType_0::SimdAdd            0      0.00%     50.16% # Class of committed instruction
system.cpu.commit.committedInstType_0::SimdAddAcc            0      0.00%     50.16% # Class of committed instruction
system.cpu.commit.committedInstType_0::SimdAlu           94      0.00%     50.16% # Class of committed instruction
system.cpu.commit.committedInstType_0::SimdCmp            0      0.00%     50.16% # Class of committed instruction
system.cpu.commit.committedInstType_0::SimdCvt           46      0.00%     50.16% # Class of committed instruction
system.cpu.commit.committedInstType_0::SimdMisc       262359      1.81%     51.97% # Class of committed instruction
system.cpu.commit.committedInstType_0::SimdMult            0      0.00%     51.97% # Class of committed instruction
system.cpu.commit.committedInstType_0::SimdMultAcc            0      0.00%     51.97% # Class of committed instruction
system.cpu.commit.committedInstType_0::SimdShift            0      0.00%     51.97% # Class of committed instruction
system.cpu.commit.committedInstType_0::SimdShiftAcc            0      0.00%     51.97% # Class of committed instruction
system.cpu.commit.committedInstType_0::SimdDiv            0      0.00%     51.97% # Class of committed instruction
system.cpu.commit.committedInstType_0::SimdSqrt            0      0.00%     51.97% # Class of committed instruction
system.cpu.commit.committedInstType_0::SimdFloatAdd      2097152     14.49%     66.46% # Class of committed instruction
system.cpu.commit.committedInstType_0::SimdFloatAlu            0      0.00%     66.46% # Class of committed instruction
system.cpu.commit.committedInstType_0::SimdFloatCmp            0      0.00%     66.46% # Class of committed instruction
system.cpu.commit.committedInstType_0::SimdFloatCvt            0      0.00%     66.46% # Class of committed instruction
system.cpu.commit.committedInstType_0::SimdFloatDiv            0      0.00%     66.46% # Class of committed instruction
system.cpu.commit.committedInstType_0::SimdFloatMisc            0      0.00%     66.46% # Class of committed instruction
system.cpu.commit.committedInstType_0::SimdFloatMult      2097152     14.49%     80.96% # Class of committed instruction
system.cpu.commit.committedInstType_0::SimdFloatMultAcc            0      0.00%     80.96% # Class of committed instruction
system.cpu.commit.committedInstType_0::SimdFloatSqrt            0      0.00%     80.96% # Class of committed instruction
system.cpu.commit.committedInstType_0::SimdReduceAdd            0      0.00%     80.96% # Class of committed instruction
system.cpu.commit.committedInstType_0::SimdReduceAlu            0      0.00%     80.96% # Class of committed instruction
system.cpu.commit.committedInstType_0::SimdReduceCmp            0      0.00%     80.96% # Class of committed instruction
system.cpu.commit.committedInstType_0::SimdFloatReduceAdd            0      0.00%     80.96% # Class of committed instruction
system.cpu.commit.committedInstType_0::SimdFloatReduceCmp            0      0.00%     80.96% # Class of committed instruction
system.cpu.commit.committedInstType_0::SimdAes            0      0.00%     80.96% # Class of committed instruction
system.cpu.commit.committedInstType_0::SimdAesMix            0      0.00%     80.96% # Class of committed instruction
system.cpu.commit.committedInstType_0::SimdSha1Hash            0      0.00%     80.96% # Class of committed instruction
system.cpu.commit.committedInstType_0::SimdSha1Hash2            0      0.00%     80.96% # Class of committed instruction
system.cpu.commit.committedInstType_0::SimdSha256Hash            0      0.00%     80.96% # Class of committed instruction
system.cpu.commit.committedInstType_0::SimdSha256Hash2            0      0.00%     80.96% # Class of committed instruction
system.cpu.commit.committedInstType_0::SimdShaSigma2            0      0.00%     80.96% # Class of committed instruction
system.cpu.commit.committedInstType_0::SimdShaSigma3            0      0.00%     80.96% # Class of committed instruction
system.cpu.commit.committedInstType_0::SimdPredAlu            0      0.00%     80.96% # Class of committed instruction
system.cpu.commit.committedInstType_0::MemRead         1437      0.01%     80.97% # Class of committed instruction
system.cpu.commit.committedInstType_0::MemWrite         1133      0.01%     80.98% # Class of committed instruction
system.cpu.commit.committedInstType_0::FloatMemRead      2621486     18.12%     99.09% # Class of committed instruction
system.cpu.commit.committedInstType_0::FloatMemWrite       131530      0.91%    100.00% # Class of committed instruction
system.cpu.commit.committedInstType_0::IprAccess            0      0.00%    100.00% # Class of committed instruction
system.cpu.commit.committedInstType_0::InstPrefetch            0      0.00%    100.00% # Class of committed instruction
system.cpu.commit.committedInstType_0::total     14470629                       # Class of committed instruction
system.cpu.commit.commitEligibleSamples        868319                       # number cycles where commit BW limit reached
system.cpu.dcache.demand_hits::.cpu.data      2723549                       # number of demand (read+write) hits
system.cpu.dcache.demand_hits::total          2723549                       # number of demand (read+write) hits
system.cpu.dcache.overall_hits::.cpu.data      2723549                       # number of overall hits
system.cpu.dcache.overall_hits::total         2723549                       # number of overall hits
system.cpu.dcache.demand_misses::.cpu.data       164453                       # number of demand (read+write) misses
system.cpu.dcache.demand_misses::total         164453                       # number of demand (read+write) misses
system.cpu.dcache.overall_misses::.cpu.data       164453                       # number of overall misses
system.cpu.dcache.overall_misses::total        164453                       # number of overall misses
system.cpu.dcache.demand_miss_latency::.cpu.data   3231260719                       # number of demand (read+write) miss cycles
system.cpu.dcache.demand_miss_latency::total   3231260719                       # number of demand (read+write) miss cycles
system.cpu.dcache.overall_miss_latency::.cpu.data   3231260719                       # number of overall miss cycles
system.cpu.dcache.overall_miss_latency::total   3231260719                       # number of overall miss cycles
system.cpu.dcache.demand_accesses::.cpu.data      2888002                       # number of demand (read+write) accesses
system.cpu.dcache.demand_accesses::total      2888002                       # number of demand (read+write) accesses
system.cpu.dcache.overall_accesses::.cpu.data      2888002                       # number of overall (read+write) accesses
system.cpu.dcache.overall_accesses::total      2888002                       # number of overall (read+write) accesses
system.cpu.dcache.demand_miss_rate::.cpu.data     0.056944                       # miss rate for demand accesses
system.cpu.dcache.demand_miss_rate::total     0.056944                       # miss rate for demand accesses
system.cpu.dcache.overall_miss_rate::.cpu.data     0.056944                       # miss rate for overall accesses
system.cpu.dcache.overall_miss_rate::total     0.056944                       # miss rate for overall accesses
system.cpu.dcache.demand_avg_miss_latency::.cpu.data 19648.536171                       # average overall miss latency
system.cpu.dcache.demand_avg_miss_latency::total 19648.536171                       # average overall miss latency
system.cpu.dcache.overall_avg_miss_latency::.cpu.data 19648.536171                       # average overall miss latency
system.cpu.dcache.overall_avg_miss_latency::total 19648.536171                       # average overall miss latency
system.cpu.dcache.blocked_cycles::no_mshrs        34965                       # number of cycles access was blocked
system.cpu.dcache.blocked_cycles::no_targets            0                       # number of cycles access was blocked
system.cpu.dcache.blocked::no_mshrs              1717                       # number of cycles access was blocked
system.cpu.dcache.blocked::no_targets               0                       # number of cycles access was blocked
system.cpu.dcache.avg_blocked_cycles::no_mshrs    20.364007                       # average number of cycles each access was blocked
system.cpu.dcache.avg_blocked_cycles::no_targets          nan                       # average number of cycles each access was blocked
system.cpu.dcache.writebacks::.writebacks        16410                       # number of writebacks
system.cpu.dcache.writebacks::total             16410                       # number of writebacks
system.cpu.dcache.demand_mshr_hits::.cpu.data       136440                       # number of demand (read+write) MSHR hits
system.cpu.dcache.demand_mshr_hits::total       136440                       # number of demand (read+write) MSHR hits
system.cpu.dcache.overall_mshr_hits::.cpu.data       136440                       # number of overall MSHR hits
system.cpu.dcache.overall_mshr_hits::total       136440                       # number of overall MSHR hits
system.cpu.dcache.demand_mshr_misses::.cpu.data        28013                       # number of demand (read+write) MSHR misses
system.cpu.dcache.demand_mshr_misses::total        28013                       # number of demand (read+write) MSHR misses
system.cpu.dcache.overall_mshr_misses::.cpu.data        28013                       # number of overall MSHR misses
system.cpu.dcache.overall_mshr_misses::total        28013                       # number of overall MSHR misses
system.cpu.dcache.demand_mshr_miss_latency::.cpu.data    597833995                       # number of demand (read+write) MSHR miss cycles
system.cpu.dcache.demand_mshr_miss_latency::total    597833995                       # number of demand (read+write) MSHR miss cycles
system.cpu.dcache.overall_mshr_miss_latency::.cpu.data    597833995                       # number of overall MSHR miss cycles
system.cpu.dcache.overall_mshr_miss_latency::total    597833995                       # number of overall MSHR miss cycles
system.cpu.dcache.demand_mshr_miss_rate::.cpu.data     0.009700                       # mshr miss rate for demand accesses
system.cpu.dcache.demand_mshr_miss_rate::total     0.009700                       # mshr miss rate for demand accesses
system.cpu.dcache.overall_mshr_miss_rate::.cpu.data     0.009700                       # mshr miss rate for overall accesses
system.cpu.dcache.overall_mshr_miss_rate::total     0.009700                       # mshr miss rate for overall accesses
system.cpu.dcache.demand_avg_mshr_miss_latency::.cpu.data 21341.305644                       # average overall mshr miss latency
system.cpu.dcache.demand_avg_mshr_miss_latency::total 21341.305644                       # average overall mshr miss latency
system.cpu.dcache.overall_avg_mshr_miss_latency::.cpu.data 21341.305644                       # average overall mshr miss latency
system.cpu.dcache.overall_avg_mshr_miss_latency::total 21341.305644                       # average overall mshr miss latency
system.cpu.dcache.replacements                  26989                       # number of replacements
system.cpu.dcache.ReadReq_hits::.cpu.data      2591007                       # number of ReadReq hits
system.cpu.dcache.ReadReq_hits::total         2591007                       # number of ReadReq hits
system.cpu.dcache.ReadReq_misses::.cpu.data       164331                       # number of ReadReq misses
system.cpu.dcache.ReadReq_misses::total        164331                       # number of ReadReq misses
system.cpu.dcache.ReadReq_miss_latency::.cpu.data   3222079492                       # number of ReadReq miss cycles
system.cpu.dcache.ReadReq_miss_latency::total   3222079492                       # number of ReadReq miss cycles
system.cpu.dcache.ReadReq_accesses::.cpu.data      2755338                       # number of ReadReq accesses(hits+misses)
system.cpu.dcache.ReadReq_accesses::total      2755338                       # number of ReadReq accesses(hits+misses)
system.cpu.dcache.ReadReq_miss_rate::.cpu.data     0.059641                       # miss rate for ReadReq accesses
system.cpu.dcache.ReadReq_miss_rate::total     0.059641                       # miss rate for ReadReq accesses
system.cpu.dcache.ReadReq_avg_miss_latency::.cpu.data 19607.252995                       # average ReadReq miss latency
system.cpu.dcache.ReadReq_avg_miss_latency::total 19607.252995                       # average ReadReq miss latency
system.cpu.dcache.ReadReq_mshr_hits::.cpu.data       136439                       # number of ReadReq MSHR hits
system.cpu.dcache.ReadReq_mshr_hits::total       136439                       # number of ReadReq MSHR hits
system.cpu.dcache.ReadReq_mshr_misses::.cpu.data        27892                       # number of ReadReq MSHR misses
system.cpu.dcache.ReadReq_mshr_misses::total        27892                       # number of ReadReq MSHR misses
system.cpu.dcache.ReadReq_mshr_miss_latency::.cpu.data    588796216                       # number of ReadReq MSHR miss cycles
system.cpu.dcache.ReadReq_mshr_miss_latency::total    588796216                       # number of ReadReq MSHR miss cycles
system.cpu.dcache.ReadReq_mshr_miss_rate::.cpu.data     0.010123                       # mshr miss rate for ReadReq accesses
system.cpu.dcache.ReadReq_mshr_miss_rate::total     0.010123                       # mshr miss rate for ReadReq accesses
system.cpu.dcache.ReadReq_avg_mshr_miss_latency::.cpu.data 21109.860032                       # average ReadReq mshr miss latency
system.cpu.dcache.ReadReq_avg_mshr_miss_latency::total 21109.860032                       # average ReadReq mshr miss latency
system.cpu.dcache.WriteReq_hits::.cpu.data       132542                       # number of WriteReq hits
system.cpu.dcache.WriteReq_hits::total         132542                       # number of WriteReq hits
system.cpu.dcache.WriteReq_misses::.cpu.data          122                       # number of WriteReq misses
system.cpu.dcache.WriteReq_misses::total          122                       # number of WriteReq misses
system.cpu.dcache.WriteReq_miss_latency::.cpu.data      9181227                       # number of WriteReq miss cycles
system.cpu.dcache.WriteReq_miss_latency::total      9181227                       # number of WriteReq miss cycles
system.cpu.dcache.WriteReq_accesses::.cpu.data       132664                       # number of WriteReq accesses(hits+misses)
system.cpu.dcache.WriteReq_accesses::total       132664                       # number of WriteReq accesses(hits+misses)
system.cpu.dcache.WriteReq_miss_rate::.cpu.data     0.000920                       # miss rate for WriteReq accesses
system.cpu.dcache.WriteReq_miss_rate::total     0.000920                       # miss rate for WriteReq accesses
system.cpu.dcache.WriteReq_avg_miss_latency::.cpu.data 75255.959016                       # average WriteReq miss latency
system.cpu.dcache.WriteReq_avg_miss_latency::total 75255.959016                       # average WriteReq miss latency
system.cpu.dcache.WriteReq_mshr_hits::.cpu.data            1                       # number of WriteReq MSHR hits
system.cpu.dcache.WriteReq_mshr_hits::total            1                       # number of WriteReq MSHR hits
system.cpu.dcache.WriteReq_mshr_misses::.cpu.data          121                       # number of WriteReq MSHR misses
system.cpu.dcache.WriteReq_mshr_misses::total          121                       # number of WriteReq MSHR misses
system.cpu.dcache.WriteReq_mshr_miss_latency::.cpu.data      9037779                       # number of WriteReq MSHR miss cycles
system.cpu.dcache.WriteReq_mshr_miss_latency::total      9037779                       # number of WriteReq MSHR miss cycles
system.cpu.dcache.WriteReq_mshr_miss_rate::.cpu.data     0.000912                       # mshr miss rate for WriteReq accesses
system.cpu.dcache.WriteReq_mshr_miss_rate::total     0.000912                       # mshr miss rate for WriteReq accesses
system.cpu.dcache.WriteReq_avg_mshr_miss_latency::.cpu.data 74692.388430                       # average WriteReq mshr miss latency
system.cpu.dcache.WriteReq_avg_mshr_miss_latency::total 74692.388430                       # average WriteReq mshr miss latency
system.cpu.dcache.power_state.pwrStateResidencyTicks::UNDEFINED   2208663852                       # Cumulative time (in ticks) in various power states
system.cpu.dcache.tags.tagsinuse           973.326037                       # Cycle average of tags in use
system.cpu.dcache.tags.total_refs             2751562                       # Total number of references to valid blocks.
system.cpu.dcache.tags.sampled_refs             28013                       # Sample count of references to valid blocks.
system.cpu.dcache.tags.avg_refs             98.224467                       # Average number of references to valid blocks.
system.cpu.dcache.tags.warmup_cycle            181812                       # Cycle when the warmup percentage was hit.
system.cpu.dcache.tags.occ_blocks::.cpu.data   973.326037                       # Average occupied blocks per requestor
system.cpu.dcache.tags.occ_percent::.cpu.data     0.950514                       # Average percentage of cache occupancy
system.cpu.dcache.tags.occ_percent::total     0.950514                       # Average percentage of cache occupancy
system.cpu.dcache.tags.occ_task_id_blocks::1024         1024                       # Occupied blocks per task id
system.cpu.dcache.tags.age_task_id_blocks_1024::0          143                       # Occupied blocks per task id
system.cpu.dcache.tags.age_task_id_blocks_1024::1          114                       # Occupied blocks per task id
system.cpu.dcache.tags.age_task_id_blocks_1024::2          454                       # Occupied blocks per task id
system.cpu.dcache.tags.age_task_id_blocks_1024::3          313                       # Occupied blocks per task id
system.cpu.dcache.tags.occ_task_id_percent::1024            1                       # Percentage of cache occupancy per task id
system.cpu.dcache.tags.tag_accesses          23132029                       # Number of tag accesses
system.cpu.dcache.tags.data_accesses         23132029                       # Number of data accesses
system.cpu.dcache.tags.power_state.pwrStateResidencyTicks::UNDEFINED   2208663852                       # Cumulative time (in ticks) in various power states
system.cpu.decode.idleCycles                  1599710                       # Number of cycles decode is idle
system.cpu.decode.blockedCycles                266091                       # Number of cycles decode is blocked
system.cpu.decode.runCycles                   2061794                       # Number of cycles decode is running
system.cpu.decode.unblockCycles                  9153                       # Number of cycles decode is unblocking
system.cpu.decode.squashCycles                    891                       # Number of cycles decode is squashing
system.cpu.decode.branchResolved               263654                       # Number of times decode resolved a  branch
system.cpu.decode.branchMispred                   216                       # Number of times decode detected a branch misprediction
system.cpu.decode.decodedInsts               14496726                       # Number of instructions handled by decode
system.cpu.decode.squashedInsts                  1122                       # Number of squashed instructions handled by decode
system.cpu.dtb.rdAccesses                     2755610                       # TLB accesses on read requests
system.cpu.dtb.wrAccesses                      133175                       # TLB accesses on write requests
system.cpu.dtb.rdMisses                           127                       # TLB misses on read requests
system.cpu.dtb.wrMisses                            23                       # TLB misses on write requests
system.cpu.dtb.walker.power_state.pwrStateResidencyTicks::UNDEFINED   2208663852                       # Cumulative time (in ticks) in various power states
system.cpu.dtb_walker_cache.blocked_cycles::no_mshrs            0                       # number of cycles access was blocked
system.cpu.dtb_walker_cache.blocked_cycles::no_targets            0                       # number of cycles access was blocked
system.cpu.dtb_walker_cache.blocked::no_mshrs            0                       # number of cycles access was blocked
system.cpu.dtb_walker_cache.blocked::no_targets            0                       # number of cycles access was blocked
system.cpu.dtb_walker_cache.avg_blocked_cycles::no_mshrs          nan                       # average number of cycles each access was blocked
system.cpu.dtb_walker_cache.avg_blocked_cycles::no_targets          nan                       # average number of cycles each access was blocked
system.cpu.dtb_walker_cache.replacements            0                       # number of replacements
system.cpu.dtb_walker_cache.power_state.pwrStateResidencyTicks::UNDEFINED   2208663852                       # Cumulative time (in ticks) in various power states
system.cpu.dtb_walker_cache.tags.tagsinuse            0                       # Cycle average of tags in use
system.cpu.dtb_walker_cache.tags.total_refs            0                       # Total number of references to valid blocks.
system.cpu.dtb_walker_cache.tags.sampled_refs            0                       # Sample count of references to valid blocks.
system.cpu.dtb_walker_cache.tags.avg_refs          nan                       # Average number of references to valid blocks.
system.cpu.dtb_walker_cache.tags.warmup_cycle            0                       # Cycle when the warmup percentage was hit.
system.cpu.dtb_walker_cache.tags.tag_accesses            0                       # Number of tag accesses
system.cpu.dtb_walker_cache.tags.data_accesses            0                       # Number of data accesses
system.cpu.dtb_walker_cache.tags.power_state.pwrStateResidencyTicks::UNDEFINED   2208663852                       # Cumulative time (in ticks) in various power states
system.cpu.fetch.icacheStallCycles            1100442                       # Number of cycles fetch is stalled on an Icache miss
system.cpu.fetch.insts                        8119107                       # Number of instructions fetch has processed
system.cpu.fetch.branches                      299107                       # Number of branches that fetch encountered
system.cpu.fetch.predictedBranches             263816                       # Number of branches that fetch has predicted taken
system.cpu.fetch.cycles                       2835137                       # Number of cycles fetch has run and was not squashing or blocked
system.cpu.fetch.squashCycles                    2200                       # Number of cycles fetch has spent squashing
system.cpu.fetch.miscStallCycles                  135                       # Number of cycles fetch has spent waiting on interrupts,or bad addresses, or out of MSHRs
system.cpu.fetch.pendingTrapStallCycles           799                       # Number of stall cycles due to pending traps
system.cpu.fetch.pendingQuiesceStallCycles           17                       # Number of stall cycles due to pending quiesce instructions
system.cpu.fetch.icacheWaitRetryStallCycles            9                       # Number of stall cycles due to full MSHR
system.cpu.fetch.cacheLines                   1084985                       # Number of cache lines fetched
system.cpu.fetch.icacheSquashes                   325                       # Number of outstanding Icache misses that were squashed
system.cpu.fetch.nisnDist::samples            3937639                       # Number of instructions fetched each cycle (Total)
system.cpu.fetch.nisnDist::mean              3.682573                       # Number of instructions fetched each cycle (Total)
system.cpu.fetch.nisnDist::stdev             3.896930                       # Number of instructions fetched each cycle (Total)
system.cpu.fetch.nisnDist::underflows               0      0.00%      0.00% # Number of instructions fetched each cycle (Total)
system.cpu.fetch.nisnDist::0                  1862627     47.30%     47.30% # Number of instructions fetched each cycle (Total)
system.cpu.fetch.nisnDist::1                   264532      6.72%     54.02% # Number of instructions fetched each cycle (Total)
system.cpu.fetch.nisnDist::2                      828      0.02%     54.04% # Number of instructions fetched each cycle (Total)
system.cpu.fetch.nisnDist::3                    33605      0.85%     54.90% # Number of instructions fetched each cycle (Total)
system.cpu.fetch.nisnDist::4                      802      0.02%     54.92% # Number of instructions fetched each cycle (Total)
system.cpu.fetch.nisnDist::5                      686      0.02%     54.93% # Number of instructions fetched each cycle (Total)
system.cpu.fetch.nisnDist::6                    33445      0.85%     55.78% # Number of instructions fetched each cycle (Total)
system.cpu.fetch.nisnDist::7                     2579      0.07%     55.85% # Number of instructions fetched each cycle (Total)
system.cpu.fetch.nisnDist::8                  1738535     44.15%    100.00% # Number of instructions fetched each cycle (Total)
system.cpu.fetch.nisnDist::overflows                0      0.00%    100.00% # Number of instructions fetched each cycle (Total)
system.cpu.fetch.nisnDist::min_value                0                       # Number of instructions fetched each cycle (Total)
system.cpu.fetch.nisnDist::max_value                8                       # Number of instructions fetched each cycle (Total)
system.cpu.fetch.nisnDist::total              3937639                       # Number of instructions fetched each cycle (Total)
system.cpu.fetch.branchRate                  0.075296                       # Number of branch fetches per cycle
system.cpu.fetch.rate                        2.043870                       # Number of inst fetches per cycle
system.cpu.icache.demand_hits::.cpu.inst      1084390                       # number of demand (read+write) hits
system.cpu.icache.demand_hits::total          1084390                       # number of demand (read+write) hits
system.cpu.icache.overall_hits::.cpu.inst      1084390                       # number of overall hits
system.cpu.icache.overall_hits::total         1084390                       # number of overall hits
system.cpu.icache.demand_misses::.cpu.inst          595                       # number of demand (read+write) misses
system.cpu.icache.demand_misses::total            595                       # number of demand (read+write) misses
system.cpu.icache.overall_misses::.cpu.inst          595                       # number of overall misses
system.cpu.icache.overall_misses::total           595                       # number of overall misses
system.cpu.icache.demand_miss_latency::.cpu.inst     46557772                       # number of demand (read+write) miss cycles
system.cpu.icache.demand_miss_latency::total     46557772                       # number of demand (read+write) miss cycles
system.cpu.icache.overall_miss_latency::.cpu.inst     46557772                       # number of overall miss cycles
system.cpu.icache.overall_miss_latency::total     46557772                       # number of overall miss cycles
system.cpu.icache.demand_accesses::.cpu.inst      1084985                       # number of demand (read+write) accesses
system.cpu.icache.demand_accesses::total      1084985                       # number of demand (read+write) accesses
system.cpu.icache.overall_accesses::.cpu.inst      1084985                       # number of overall (read+write) accesses
system.cpu.icache.overall_accesses::total      1084985                       # number of overall (read+write) accesses
system.cpu.icache.demand_miss_rate::.cpu.inst     0.000548                       # miss rate for demand accesses
system.cpu.icache.demand_miss_rate::total     0.000548                       # miss rate for demand accesses
system.cpu.icache.overall_miss_rate::.cpu.inst     0.000548                       # miss rate for overall accesses
system.cpu.icache.overall_miss_rate::total     0.000548                       # miss rate for overall accesses
system.cpu.icache.demand_avg_miss_latency::.cpu.inst 78248.356303                       # average overall miss latency
system.cpu.icache.demand_avg_miss_latency::total 78248.356303                       # average overall miss latency
system.cpu.icache.overall_avg_miss_latency::.cpu.inst 78248.356303                       # average overall miss latency
system.cpu.icache.overall_avg_miss_latency::total 78248.356303                       # average overall miss latency
system.cpu.icache.blocked_cycles::no_mshrs           21                       # number of cycles access was blocked
system.cpu.icache.blocked_cycles::no_targets            0                       # number of cycles access was blocked
system.cpu.icache.blocked::no_mshrs                 2                       # number of cycles access was blocked
system.cpu.icache.blocked::no_targets               0                       # number of cycles access was blocked
system.cpu.icache.avg_blocked_cycles::no_mshrs    10.500000                       # average number of cycles each access was blocked
system.cpu.icache.avg_blocked_cycles::no_targets          nan                       # average number of cycles each access was blocked
system.cpu.icache.writebacks::.writebacks           20                       # number of writebacks
system.cpu.icache.writebacks::total                20                       # number of writebacks
system.cpu.icache.demand_mshr_hits::.cpu.inst          138                       # number of demand (read+write) MSHR hits
system.cpu.icache.demand_mshr_hits::total          138                       # number of demand (read+write) MSHR hits
system.cpu.icache.overall_mshr_hits::.cpu.inst          138                       # number of overall MSHR hits
system.cpu.icache.overall_mshr_hits::total          138                       # number of overall MSHR hits
system.cpu.icache.demand_mshr_misses::.cpu.inst          457                       # number of demand (read+write) MSHR misses
system.cpu.icache.demand_mshr_misses::total          457                       # number of demand (read+write) MSHR misses
system.cpu.icache.overall_mshr_misses::.cpu.inst          457                       # number of overall MSHR misses
system.cpu.icache.overall_mshr_misses::total          457                       # number of overall MSHR misses
system.cpu.icache.demand_mshr_miss_latency::.cpu.inst     38236676                       # number of demand (read+write) MSHR miss cycles
system.cpu.icache.demand_mshr_miss_latency::total     38236676                       # number of demand (read+write) MSHR miss cycles
system.cpu.icache.overall_mshr_miss_latency::.cpu.inst     38236676                       # number of overall MSHR miss cycles
system.cpu.icache.overall_mshr_miss_latency::total     38236676                       # number of overall MSHR miss cycles
system.cpu.icache.demand_mshr_miss_rate::.cpu.inst     0.000421                       # mshr miss rate for demand accesses
system.cpu.icache.demand_mshr_miss_rate::total     0.000421                       # mshr miss rate for demand accesses
system.cpu.icache.overall_mshr_miss_rate::.cpu.inst     0.000421                       # mshr miss rate for overall accesses
system.cpu.icache.overall_mshr_miss_rate::total     0.000421                       # mshr miss rate for overall accesses
system.cpu.icache.demand_avg_mshr_miss_latency::.cpu.inst 83668.875274                       # average overall mshr miss latency
system.cpu.icache.demand_avg_mshr_miss_latency::total 83668.875274                       # average overall mshr miss latency
system.cpu.icache.overall_avg_mshr_miss_latency::.cpu.inst 83668.875274                       # average overall mshr miss latency
system.cpu.icache.overall_avg_mshr_miss_latency::total 83668.875274                       # average overall mshr miss latency
system.cpu.icache.replacements                     20                       # number of replacements
system.cpu.icache.ReadReq_hits::.cpu.inst      1084390                       # number of ReadReq hits
system.cpu.icache.ReadReq_hits::total         1084390                       # number of ReadReq hits
system.cpu.icache.ReadReq_misses::.cpu.inst          595                       # number of ReadReq misses
system.cpu.icache.ReadReq_misses::total           595                       # number of ReadReq misses
system.cpu.icache.ReadReq_miss_latency::.cpu.inst     46557772                       # number of ReadReq miss cycles
system.cpu.icache.ReadReq_miss_latency::total     46557772                       # number of ReadReq miss cycles
system.cpu.icache.ReadReq_accesses::.cpu.inst      1084985                       # number of ReadReq accesses(hits+misses)
system.cpu.icache.ReadReq_accesses::total      1084985                       # number of ReadReq accesses(hits+misses)
system.cpu.icache.ReadReq_miss_rate::.cpu.inst     0.000548                       # miss rate for ReadReq accesses
system.cpu.icache.ReadReq_miss_rate::total     0.000548                       # miss rate for ReadReq accesses
system.cpu.icache.ReadReq_avg_miss_latency::.cpu.inst 78248.356303                       # average ReadReq miss latency
system.cpu.icache.ReadReq_avg_miss_latency::total 78248.356303                       # average ReadReq miss latency
system.cpu.icache.ReadReq_mshr_hits::.cpu.inst          138                       # number of ReadReq MSHR hits
system.cpu.icache.ReadReq_mshr_hits::total          138                       # number of ReadReq MSHR hits
system.cpu.icache.ReadReq_mshr_misses::.cpu.inst          457                       # number of ReadReq MSHR misses
system.cpu.icache.ReadReq_mshr_misses::total          457                       # number of ReadReq MSHR misses
system.cpu.icache.ReadReq_mshr_miss_latency::.cpu.inst     38236676                       # number of ReadReq MSHR miss cycles
system.cpu.icache.ReadReq_mshr_miss_latency::total     38236676                       # number of ReadReq MSHR miss cycles
system.cpu.icache.ReadReq_mshr_miss_rate::.cpu.inst     0.000421                       # mshr miss rate for ReadReq accesses
system.cpu.icache.ReadReq_mshr_miss_rate::total     0.000421                       # mshr miss rate for ReadReq accesses
system.cpu.icache.ReadReq_avg_mshr_miss_latency::.cpu.inst 83668.875274                       # average ReadReq mshr miss latency
system.cpu.icache.ReadReq_avg_mshr_miss_latency::total 83668.875274                       # average ReadReq mshr miss latency
system.cpu.icache.power_state.pwrStateResidencyTicks::UNDEFINED   2208663852                       # Cumulative time (in ticks) in various power states
system.cpu.icache.tags.tagsinuse           394.150528                       # Cycle average of tags in use
system.cpu.icache.tags.total_refs             1084847                       # Total number of references to valid blocks.
system.cpu.icache.tags.sampled_refs               457                       # Sample count of references to valid blocks.
system.cpu.icache.tags.avg_refs           2373.844639                       # Average number of references to valid blocks.
system.cpu.icache.tags.warmup_cycle             88960                       # Cycle when the warmup percentage was hit.
system.cpu.icache.tags.occ_blocks::.cpu.inst   394.150528                       # Average occupied blocks per requestor
system.cpu.icache.tags.occ_percent::.cpu.inst     0.384913                       # Average percentage of cache occupancy
system.cpu.icache.tags.occ_percent::total     0.384913                       # Average percentage of cache occupancy
system.cpu.icache.tags.occ_task_id_blocks::1024          437                       # Occupied blocks per task id
system.cpu.icache.tags.age_task_id_blocks_1024::0           42                       # Occupied blocks per task id
system.cpu.icache.tags.age_task_id_blocks_1024::2            1                       # Occupied blocks per task id
system.cpu.icache.tags.age_task_id_blocks_1024::3          394                       # Occupied blocks per task id
system.cpu.icache.tags.occ_task_id_percent::1024     0.426758                       # Percentage of cache occupancy per task id
system.cpu.icache.tags.tag_accesses           2170427                       # Number of tag accesses
system.cpu.icache.tags.data_accesses          2170427                       # Number of data accesses
system.cpu.icache.tags.power_state.pwrStateResidencyTicks::UNDEFINED   2208663852                       # Cumulative time (in ticks) in various power states
system.cpu.interrupts.clk_domain.clock           8896                       # Clock period in ticks
system.cpu.itb.rdAccesses                           0                       # TLB accesses on read requests
system.cpu.itb.wrAccesses                     1085124                       # TLB accesses on write requests
system.cpu.itb.rdMisses                             0                       # TLB misses on read requests
system.cpu.itb.wrMisses                           182                       # TLB misses on write requests
system.cpu.itb.walker.power_state.pwrStateResidencyTicks::UNDEFINED   2208663852                       # Cumulative time (in ticks) in various power states
system.cpu.itb_walker_cache.blocked_cycles::no_mshrs            0                       # number of cycles access was blocked
system.cpu.itb_walker_cache.blocked_cycles::no_targets            0                       # number of cycles access was blocked
system.cpu.itb_walker_cache.blocked::no_mshrs            0                       # number of cycles access was blocked
system.cpu.itb_walker_cache.blocked::no_targets            0                       # number of cycles access was blocked
system.cpu.itb_walker_cache.avg_blocked_cycles::no_mshrs          nan                       # average number of cycles each access was blocked
system.cpu.itb_walker_cache.avg_blocked_cycles::no_targets          nan                       # average number of cycles each access was blocked
system.cpu.itb_walker_cache.replacements            0                       # number of replacements
system.cpu.itb_walker_cache.power_state.pwrStateResidencyTicks::UNDEFINED   2208663852                       # Cumulative time (in ticks) in various power states
system.cpu.itb_walker_cache.tags.tagsinuse            0                       # Cycle average of tags in use
system.cpu.itb_walker_cache.tags.total_refs            0                       # Total number of references to valid blocks.
system.cpu.itb_walker_cache.tags.sampled_refs            0                       # Sample count of references to valid blocks.
system.cpu.itb_walker_cache.tags.avg_refs          nan                       # Average number of references to valid blocks.
system.cpu.itb_walker_cache.tags.warmup_cycle            0                       # Cycle when the warmup percentage was hit.
system.cpu.itb_walker_cache.tags.tag_accesses            0                       # Number of tag accesses
system.cpu.itb_walker_cache.tags.data_accesses            0                       # Number of data accesses
system.cpu.itb_walker_cache.tags.power_state.pwrStateResidencyTicks::UNDEFINED   2208663852                       # Cumulative time (in ticks) in various power states
system.cpu.lsq0.forwLoads                         202                       # Number of loads that had data forwarded from stores
system.cpu.lsq0.squashedLoads                    2619                       # Number of loads squashed
system.cpu.lsq0.ignoredResponses                    1                       # Number of memory responses ignored because the instruction is squashed
system.cpu.lsq0.memOrderViolation                   9                       # Number of memory ordering violations
system.cpu.lsq0.squashedStores                    938                       # Number of stores squashed
system.cpu.lsq0.rescheduledLoads                    0                       # Number of loads that were rescheduled
system.cpu.lsq0.blockedByCache                   1505                       # Number of times an access to memory failed due to the cache being blocked
system.cpu.power_state.pwrStateResidencyTicks::ON   2208663852                       # Cumulative time (in ticks) in various power states
system.cpu.rename.squashCycles                    891                       # Number of cycles rename is squashing
system.cpu.rename.idleCycles                  1604403                       # Number of cycles rename is idle
system.cpu.rename.blockCycles                   35535                       # Number of cycles rename is blocking
system.cpu.rename.serializeStallCycles             35                       # count of cycles rename stalledfor serializing inst
system.cpu.rename.runCycles                   2066077                       # Number of cycles rename is running
system.cpu.rename.unblockCycles                230698                       # Number of cycles rename is unblocking
system.cpu.rename.renamedInsts               14494571                       # Number of instructions processed by rename
system.cpu.rename.ROBFullEvents                 18408                       # Number of times rename has blocked due to ROB full
system.cpu.rename.IQFullEvents                  92938                       # Number of times rename has blocked due to IQ full
system.cpu.rename.LQFullEvents                 210807                       # Number of times rename has blocked due to LQ full
system.cpu.rename.SQFullEvents                   6145                       # Number of times rename has blocked due to SQ full
system.cpu.rename.renamedOperands            15810033                       # Number of destination operands rename has renamed
system.cpu.rename.lookups                    26337279                       # Number of register rename lookups that rename has made
system.cpu.rename.intLookups                  8115934                       # Number of integer rename lookups
system.cpu.rename.fpLookups                  13371192                       # Number of floating rename lookups
system.cpu.rename.committedMaps              15785244                       # Number of HB maps that are committed
system.cpu.rename.undoneMaps                    24775                       # Number of HB maps that are undone due to squashing
system.cpu.rename.serializing                       4                       # count of serializing insts renamed
system.cpu.rename.tempSerializing                   4                       # count of temporary serializing insts renamed
system.cpu.rename.skidInsts                     46896                       # count of insts added to the skid buffer
system.cpu.rob.reads                         17554150                       # The number of ROB reads
system.cpu.rob.writes                        28977626                       # The number of ROB writes
system.cpu.thread_0.numInsts                  8104173                       # Number of Instructions committed
system.cpu.thread_0.numOps                   14470629                       # Number of Ops committed
system.cpu.thread_0.numMemRefs                      0                       # Number of Memory References
system.cpu_clk_domain.clock                       556                       # Clock period in ticks
system.cpu_voltage_domain.voltage                   1                       # Voltage in Volts
system.l2.demand_hits::.cpu.inst                    3                       # number of demand (read+write) hits
system.l2.demand_hits::.cpu.data                24715                       # number of demand (read+write) hits
system.l2.demand_hits::total                    24718                       # number of demand (read+write) hits
system.l2.overall_hits::.cpu.inst                   3                       # number of overall hits
system.l2.overall_hits::.cpu.data               24715                       # number of overall hits
system.l2.overall_hits::total                   24718                       # number of overall hits
system.l2.demand_misses::.cpu.inst                454                       # number of demand (read+write) misses
system.l2.demand_misses::.cpu.data               3298                       # number of demand (read+write) misses
system.l2.demand_misses::total                   3752                       # number of demand (read+write) misses
system.l2.overall_misses::.cpu.inst               454                       # number of overall misses
system.l2.overall_misses::.cpu.data              3298                       # number of overall misses
system.l2.overall_misses::total                  3752                       # number of overall misses
system.l2.demand_miss_latency::.cpu.inst     37433812                       # number of demand (read+write) miss cycles
system.l2.demand_miss_latency::.cpu.data    261809836                       # number of demand (read+write) miss cycles
system.l2.demand_miss_latency::total        299243648                       # number of demand (read+write) miss cycles
system.l2.overall_miss_latency::.cpu.inst     37433812                       # number of overall miss cycles
system.l2.overall_miss_latency::.cpu.data    261809836                       # number of overall miss cycles
system.l2.overall_miss_latency::total       299243648                       # number of overall miss cycles
system.l2.demand_accesses::.cpu.inst              457                       # number of demand (read+write) accesses
system.l2.demand_accesses::.cpu.data            28013                       # number of demand (read+write) accesses
system.l2.demand_accesses::total                28470                       # number of demand (read+write) accesses
system.l2.overall_accesses::.cpu.inst             457                       # number of overall (read+write) accesses
system.l2.overall_accesses::.cpu.data           28013                       # number of overall (read+write) accesses
system.l2.overall_accesses::total               28470                       # number of overall (read+write) accesses
system.l2.demand_miss_rate::.cpu.inst        0.993435                       # miss rate for demand accesses
system.l2.demand_miss_rate::.cpu.data        0.117731                       # miss rate for demand accesses
system.l2.demand_miss_rate::total            0.131788                       # miss rate for demand accesses
system.l2.overall_miss_rate::.cpu.inst       0.993435                       # miss rate for overall accesses
system.l2.overall_miss_rate::.cpu.data       0.117731                       # miss rate for overall accesses
system.l2.overall_miss_rate::total           0.131788                       # miss rate for overall accesses
system.l2.demand_avg_miss_latency::.cpu.inst 82453.330396                       # average overall miss latency
system.l2.demand_avg_miss_latency::.cpu.data 79384.425713                       # average overall miss latency
system.l2.demand_avg_miss_latency::total 79755.769723                       # average overall miss latency
system.l2.overall_avg_miss_latency::.cpu.inst 82453.330396                       # average overall miss latency
system.l2.overall_avg_miss_latency::.cpu.data 79384.425713                       # average overall miss latency
system.l2.overall_avg_miss_latency::total 79755.769723                       # average overall miss latency
system.l2.blocked_cycles::no_mshrs                  0                       # number of cycles access was blocked
system.l2.blocked_cycles::no_targets                0                       # number of cycles access was blocked
[...]
system.mem_ctrls.dram.bw_total::.cpu.inst     13155465                       # Total bandwidth to/from this memory (bytes/s)
system.mem_ctrls.dram.bw_total::.cpu.data     95565470                       # Total bandwidth to/from this memory (bytes/s)
system.mem_ctrls.dram.bw_total::total       108720935                       # Total bandwidth to/from this memory (bytes/s)
system.mem_ctrls.dram.readBursts                 3752                       # Number of DRAM read bursts
system.mem_ctrls.dram.writeBursts                   0                       # Number of DRAM write bursts
system.mem_ctrls.dram.perBankRdBursts::0          222                       # Per bank write bursts
system.mem_ctrls.dram.perBankRdBursts::1          301                       # Per bank write bursts
system.mem_ctrls.dram.perBankRdBursts::2          264                       # Per bank write bursts
system.mem_ctrls.dram.perBankRdBursts::3          263                       # Per bank write bursts
system.mem_ctrls.dram.perBankRdBursts::4          263                       # Per bank write bursts
system.mem_ctrls.dram.perBankRdBursts::5          266                       # Per bank write bursts
system.mem_ctrls.dram.perBankRdBursts::6          331                       # Per bank write bursts
system.mem_ctrls.dram.perBankRdBursts::7          284                       # Per bank write bursts
system.mem_ctrls.dram.perBankRdBursts::8          281                       # Per bank write bursts
system.mem_ctrls.dram.perBankRdBursts::9          182                       # Per bank write bursts
system.mem_ctrls.dram.perBankRdBursts::10          146                       # Per bank write bursts
system.mem_ctrls.dram.perBankRdBursts::11          201                       # Per bank write bursts
system.mem_ctrls.dram.perBankRdBursts::12          184                       # Per bank write bursts
system.mem_ctrls.dram.perBankRdBursts::13          140                       # Per bank write bursts
system.mem_ctrls.dram.perBankRdBursts::14          187                       # Per bank write bursts
system.mem_ctrls.dram.perBankRdBursts::15          237                       # Per bank write bursts
system.mem_ctrls.dram.perBankWrBursts::0            0                       # Per bank write bursts
system.mem_ctrls.dram.perBankWrBursts::1            0                       # Per bank write bursts
system.mem_ctrls.dram.perBankWrBursts::2            0                       # Per bank write bursts
system.mem_ctrls.dram.perBankWrBursts::3            0                       # Per bank write bursts
system.mem_ctrls.dram.perBankWrBursts::4            0                       # Per bank write bursts
system.mem_ctrls.dram.perBankWrBursts::5            0                       # Per bank write bursts
system.mem_ctrls.dram.perBankWrBursts::6            0                       # Per bank write bursts
system.mem_ctrls.dram.perBankWrBursts::7            0                       # Per bank write bursts
system.mem_ctrls.dram.perBankWrBursts::8            0                       # Per bank write bursts
system.mem_ctrls.dram.perBankWrBursts::9            0                       # Per bank write bursts
system.mem_ctrls.dram.perBankWrBursts::10            0                       # Per bank write bursts
system.mem_ctrls.dram.perBankWrBursts::11            0                       # Per bank write bursts
system.mem_ctrls.dram.perBankWrBursts::12            0                       # Per bank write bursts
system.mem_ctrls.dram.perBankWrBursts::13            0                       # Per bank write bursts
system.mem_ctrls.dram.perBankWrBursts::14            0                       # Per bank write bursts
system.mem_ctrls.dram.perBankWrBursts::15            0                       # Per bank write bursts
system.mem_ctrls.dram.totQLat                26573222                       # Total ticks spent queuing
system.mem_ctrls.dram.totBusLat              18760000                       # Total ticks spent in databus transfers
system.mem_ctrls.dram.totMemAccLat           96923222                       # Total ticks spent from burst creation until serviced by the DRAM
system.mem_ctrls.dram.avgQLat                 7082.42                       # Average queueing delay per DRAM burst
system.mem_ctrls.dram.avgBusLat               5000.00                       # Average bus latency per DRAM burst
system.mem_ctrls.dram.avgMemAccLat           25832.42                       # Average memory access latency per DRAM burst
system.mem_ctrls.dram.readRowHits                3211                       # Number of row buffer hits during reads
system.mem_ctrls.dram.writeRowHits                  0                       # Number of row buffer hits during writes
system.mem_ctrls.dram.readRowHitRate            85.58                       # Row buffer hit rate for reads
system.mem_ctrls.dram.writeRowHitRate             nan                       # Row buffer hit rate for writes
system.mem_ctrls.dram.bytesPerActivate::samples          530                       # Bytes accessed per row activation
system.mem_ctrls.dram.bytesPerActivate::mean   448.483019                       # Bytes accessed per row activation
system.mem_ctrls.dram.bytesPerActivate::gmean   291.360227                       # Bytes accessed per row activation
system.mem_ctrls.dram.bytesPerActivate::stdev   354.364642                       # Bytes accessed per row activation
system.mem_ctrls.dram.bytesPerActivate::0-127          115     21.70%     21.70% # Bytes accessed per row activation
system.mem_ctrls.dram.bytesPerActivate::128-255           91     17.17%     38.87% # Bytes accessed per row activation
system.mem_ctrls.dram.bytesPerActivate::256-383           26      4.91%     43.77% # Bytes accessed per row activation
system.mem_ctrls.dram.bytesPerActivate::384-511           80     15.09%     58.87% # Bytes accessed per row activation
system.mem_ctrls.dram.bytesPerActivate::512-639           75     14.15%     73.02% # Bytes accessed per row activation
system.mem_ctrls.dram.bytesPerActivate::640-767            5      0.94%     73.96% # Bytes accessed per row activation
system.mem_ctrls.dram.bytesPerActivate::768-895           20      3.77%     77.74% # Bytes accessed per row activation
system.mem_ctrls.dram.bytesPerActivate::896-1023           23      4.34%     82.08% # Bytes accessed per row activation
system.mem_ctrls.dram.bytesPerActivate::1024-1151           95     17.92%    100.00% # Bytes accessed per row activation
system.mem_ctrls.dram.bytesPerActivate::total          530                       # Bytes accessed per row activation
system.mem_ctrls.dram.bytesRead                240128                       # Total number of bytes read from DRAM
system.mem_ctrls.dram.bytesWritten                  0                       # Total number of bytes written to DRAM
system.mem_ctrls.dram.avgRdBW              108.720935                       # Average DRAM read bandwidth in MiBytes/s
system.mem_ctrls.dram.avgWrBW                       0                       # Average DRAM write bandwidth in MiBytes/s
system.mem_ctrls.dram.peakBW                 12800.00                       # Theoretical peak bandwidth in MiByte/s
system.mem_ctrls.dram.busUtil                    0.85                       # Data bus utilization in percentage
system.mem_ctrls.dram.busUtilRead                0.85                       # Data bus utilization in percentage for reads
system.mem_ctrls.dram.busUtilWrite               0.00                       # Data bus utilization in percentage for writes
system.mem_ctrls.dram.pageHitRate               85.58                       # Row buffer hit rate, read and write combined
system.mem_ctrls.dram.power_state.pwrStateResidencyTicks::UNDEFINED   2208663852                       # Cumulative time (in ticks) in various power states
system.mem_ctrls.dram.rank0.actEnergy         2349060                       # Energy for activate commands per rank (pJ)
system.mem_ctrls.dram.rank0.preEnergy         1225785                       # Energy for precharge commands per rank (pJ)
system.mem_ctrls.dram.rank0.readEnergy       15665160                       # Energy for read commands per rank (pJ)
system.mem_ctrls.dram.rank0.writeEnergy             0                       # Energy for write commands per rank (pJ)
system.mem_ctrls.dram.rank0.refreshEnergy 173943120.000000                       # Energy for refresh commands per rank (pJ)
system.mem_ctrls.dram.rank0.actBackEnergy    290322090                       # Energy for active background per rank (pJ)
system.mem_ctrls.dram.rank0.preBackEnergy    603645600                       # Energy for precharge background per rank (pJ)
system.mem_ctrls.dram.rank0.actPowerDownEnergy            0                       # Energy for active power-down per rank (pJ)
system.mem_ctrls.dram.rank0.prePowerDownEnergy            0                       # Energy for precharge power-down per rank (pJ)
system.mem_ctrls.dram.rank0.selfRefreshEnergy            0                       # Energy for self refresh per rank (pJ)
system.mem_ctrls.dram.rank0.totalEnergy    1087150815                       # Total energy per rank (pJ)
system.mem_ctrls.dram.rank0.averagePower   492.221039                       # Core power per rank (mW)
system.mem_ctrls.dram.rank0.totalIdleTime            0                       # Total Idle time Per DRAM Rank
system.mem_ctrls.dram.rank0.pwrStateTime::IDLE   1565984162                       # Time in different power states
system.mem_ctrls.dram.rank0.pwrStateTime::REF     73580000                       # Time in different power states
system.mem_ctrls.dram.rank0.pwrStateTime::SREF            0                       # Time in different power states
system.mem_ctrls.dram.rank0.pwrStateTime::PRE_PDN            0                       # Time in different power states
system.mem_ctrls.dram.rank0.pwrStateTime::ACT    569099690                       # Time in different power states
system.mem_ctrls.dram.rank0.pwrStateTime::ACT_PDN            0                       # Time in different power states
system.mem_ctrls.dram.rank1.actEnergy         1513680                       # Energy for activate commands per rank (pJ)
system.mem_ctrls.dram.rank1.preEnergy          785565                       # Energy for precharge commands per rank (pJ)
system.mem_ctrls.dram.rank1.readEnergy       11124120                       # Energy for read commands per rank (pJ)
system.mem_ctrls.dram.rank1.writeEnergy             0                       # Energy for write commands per rank (pJ)
system.mem_ctrls.dram.rank1.refreshEnergy 173943120.000000                       # Energy for refresh commands per rank (pJ)
system.mem_ctrls.dram.rank1.actBackEnergy    179805360                       # Energy for active background per rank (pJ)
system.mem_ctrls.dram.rank1.preBackEnergy    696712320                       # Energy for precharge background per rank (pJ)
system.mem_ctrls.dram.rank1.actPowerDownEnergy            0                       # Energy for active power-down per rank (pJ)
system.mem_ctrls.dram.rank1.prePowerDownEnergy            0                       # Energy for precharge power-down per rank (pJ)
system.mem_ctrls.dram.rank1.selfRefreshEnergy            0                       # Energy for self refresh per rank (pJ)
system.mem_ctrls.dram.rank1.totalEnergy    1063884165                       # Total energy per rank (pJ)
system.mem_ctrls.dram.rank1.averagePower   481.686774                       # Core power per rank (mW)
system.mem_ctrls.dram.rank1.totalIdleTime            0                       # Total Idle time Per DRAM Rank
system.mem_ctrls.dram.rank1.pwrStateTime::IDLE   1809587270                       # Time in different power states
system.mem_ctrls.dram.rank1.pwrStateTime::REF     73580000                       # Time in different power states
system.mem_ctrls.dram.rank1.pwrStateTime::SREF            0                       # Time in different power states
system.mem_ctrls.dram.rank1.pwrStateTime::PRE_PDN            0                       # Time in different power states
system.mem_ctrls.dram.rank1.pwrStateTime::ACT    325496582                       # Time in different power states
system.mem_ctrls.dram.rank1.pwrStateTime::ACT_PDN            0                       # Time in different power states
system.mem_ctrls.power_state.pwrStateResidencyTicks::UNDEFINED   2208663852                       # Cumulative time (in ticks) in various power states
system.membus.trans_dist::ReadResp               3645                       # Transaction distribution
system.membus.trans_dist::ReadExReq               107                       # Transaction distribution
system.membus.trans_dist::ReadExResp              107                       # Transaction distribution
system.membus.trans_dist::ReadSharedReq          3645                       # Transaction distribution
system.membus.pkt_count_system.l2.mem_side_port::system.mem_ctrls.port         7504                       # Packet count per connected requestor and responder (bytes)
system.membus.pkt_count_system.l2.mem_side_port::total         7504                       # Packet count per connected requestor and responder (bytes)
system.membus.pkt_count::total                   7504                       # Packet count per connected requestor and responder (bytes)
system.membus.pkt_size_system.l2.mem_side_port::system.mem_ctrls.port       240128                       # Cumulative packet size per connected requestor and responder (bytes)
system.membus.pkt_size_system.l2.mem_side_port::total       240128                       # Cumulative packet size per connected requestor and responder (bytes)
system.membus.pkt_size::total                  240128                       # Cumulative packet size per connected requestor and responder (bytes)
system.membus.snoops                                0                       # Total snoops (count)
system.membus.snoopTraffic                          0                       # Total snoop traffic (bytes)
system.membus.snoop_fanout::samples              3752                       # Request fanout histogram
system.membus.snoop_fanout::mean                    0                       # Request fanout histogram
system.membus.snoop_fanout::stdev                   0                       # Request fanout histogram
system.membus.snoop_fanout::underflows              0      0.00%      0.00% # Request fanout histogram
system.membus.snoop_fanout::0                    3752    100.00%    100.00% # Request fanout histogram
system.membus.snoop_fanout::1                       0      0.00%    100.00% # Request fanout histogram
system.membus.snoop_fanout::overflows               0      0.00%    100.00% # Request fanout histogram
system.membus.snoop_fanout::min_value               0                       # Request fanout histogram
system.membus.snoop_fanout::max_value               0                       # Request fanout histogram
system.membus.snoop_fanout::total                3752                       # Request fanout histogram
system.membus.power_state.pwrStateResidencyTicks::UNDEFINED   2208663852                       # Cumulative time (in ticks) in various power states
system.membus.reqLayer2.occupancy             5606840                       # Layer occupancy (ticks)
system.membus.reqLayer2.utilization               0.3                       # Layer utilization (%)
system.membus.respLayer1.occupancy           19819470                       # Layer occupancy (ticks)
system.membus.respLayer1.utilization              0.9                       # Layer utilization (%)
system.tol2bus.trans_dist::ReadResp             28349                       # Transaction distribution
system.tol2bus.trans_dist::WritebackDirty        16410                       # Transaction distribution
system.tol2bus.trans_dist::WritebackClean           20                       # Transaction distribution
system.tol2bus.trans_dist::CleanEvict           10579                       # Transaction distribution
system.tol2bus.trans_dist::ReadExReq              121                       # Transaction distribution
system.tol2bus.trans_dist::ReadExResp             121                       # Transaction distribution
system.tol2bus.trans_dist::ReadCleanReq           457                       # Transaction distribution
system.tol2bus.trans_dist::ReadSharedReq        27892                       # Transaction distribution
system.tol2bus.pkt_count_system.cpu.icache.mem_side_port::system.l2.cpu_side_port          934                       # Packet count per connected requestor and responder (bytes)
system.tol2bus.pkt_count_system.cpu.dcache.mem_side_port::system.l2.cpu_side_port        83015                       # Packet count per connected requestor and responder (bytes)
system.tol2bus.pkt_count::total                 83949                       # Packet count per connected requestor and responder (bytes)
system.tol2bus.pkt_size_system.cpu.icache.mem_side_port::system.l2.cpu_side_port        30528                       # Cumulative packet size per connected requestor and responder (bytes)
system.tol2bus.pkt_size_system.cpu.dcache.mem_side_port::system.l2.cpu_side_port      2843072                       # Cumulative packet size per connected requestor and responder (bytes)
system.tol2bus.pkt_size::total                2873600                       # Cumulative packet size per connected requestor and responder (bytes)
system.tol2bus.snoops                               0                       # Total snoops (count)
system.tol2bus.snoopTraffic                         0                       # Total snoop traffic (bytes)
system.tol2bus.snoop_fanout::samples            28470                       # Request fanout histogram
system.tol2bus.snoop_fanout::mean                   0                       # Request fanout histogram
system.tol2bus.snoop_fanout::stdev                  0                       # Request fanout histogram
system.tol2bus.snoop_fanout::underflows             0      0.00%      0.00% # Request fanout histogram
system.tol2bus.snoop_fanout::0                  28470    100.00%    100.00% # Request fanout histogram
system.tol2bus.snoop_fanout::1                      0      0.00%    100.00% # Request fanout histogram
system.tol2bus.snoop_fanout::2                      0      0.00%    100.00% # Request fanout histogram
system.tol2bus.snoop_fanout::3                      0      0.00%    100.00% # Request fanout histogram
system.tol2bus.snoop_fanout::4                      0      0.00%    100.00% # Request fanout histogram
system.tol2bus.snoop_fanout::overflows              0      0.00%    100.00% # Request fanout histogram
system.tol2bus.snoop_fanout::min_value              0                       # Request fanout histogram
system.tol2bus.snoop_fanout::max_value              0                       # Request fanout histogram
system.tol2bus.snoop_fanout::total              28470                       # Request fanout histogram
system.tol2bus.power_state.pwrStateResidencyTicks::UNDEFINED   2208663852                       # Cumulative time (in ticks) in various power states
system.tol2bus.reqLayer0.occupancy           49116484                       # Layer occupancy (ticks)
system.tol2bus.reqLayer0.utilization              2.2                       # Layer utilization (%)
system.tol2bus.respLayer0.occupancy            762276                       # Layer occupancy (ticks)
system.tol2bus.respLayer0.utilization             0.0                       # Layer utilization (%)
system.tol2bus.respLayer1.occupancy          46725684                       # Layer occupancy (ticks)
system.tol2bus.respLayer1.utilization             2.1                       # Layer utilization (%)
system.voltage_domain.voltage                       1                       # Voltage in Volts

---------- End Simulation Statistics   ----------
