
---------- Begin Simulation Statistics ----------
final_tick                                 1998381000                       # Number of ticks from beginning of simulation (restored from checkpoints and never reset)
host_inst_rate                                 253691                       # Simulator instruction rate (inst/s)
host_mem_usage                                 654584                       # Number of bytes of host memory used
host_op_rate                                   452983                       # Simulator op (including micro ops) rate (op/s)
host_seconds                                    31.95                       # Real time elapsed on the host
host_tick_rate                               62556475                       # Simulator tick rate (ticks/s)
sim_freq                                 1000000000000                       # Frequency of simulated ticks
sim_insts                                     8104173                       # Number of instructions simulated
sim_ops                                      14470629                       # Number of ops (including micro ops) simulated
sim_seconds                                  0.001998                       # Number of seconds simulated
sim_ticks                                  1998381000                       # Number of ticks simulated
system.cpu.cc_regfile_reads                   1486333                       # number of cc regfile reads
system.cpu.cc_regfile_writes                  1779135                       # number of cc regfile writes
system.cpu.committedInsts                     8104173                       # Number of Instructions Simulated
system.cpu.committedOps                      14470629                       # Number of Ops (including micro ops) Simulated
system.cpu.cpi                               0.493173                       # CPI: Cycles Per Instruction
system.cpu.cpi_total                         0.493173                       # CPI: Total CPI of All Threads
system.cpu.fp_regfile_reads                  13370857                       # number of floating regfile reads
system.cpu.fp_regfile_writes                 11863811                       # number of floating regfile writes
system.cpu.idleCycles                           37778                       # Total number of cycles that the CPU has spent unscheduled due to idling
system.cpu.iew.branchMispredicts                  982                       # Number of branch mispredicts detected at execute
system.cpu.iew.exec_branches                   297486                       # Number of branches executed
system.cpu.iew.exec_nop                             0                       # number of nop insts executed
system.cpu.iew.exec_rate                     3.626274                       # Inst execution rate
system.cpu.iew.exec_refs                      2769695                       # number of memory reference insts executed
system.cpu.iew.exec_stores                     133170                       # Number of stores executed
system.cpu.iew.exec_swp                             0                       # number of swp insts executed
system.cpu.iew.iewBlockCycles                    7210                       # Number of cycles IEW is blocking
system.cpu.iew.iewDispLoadInsts               2625544                       # Number of dispatched load instructions
system.cpu.iew.iewDispNonSpecInsts                  2                       # Number of dispatched non-speculative instructions
system.cpu.iew.iewDispSquashedInsts                88                       # Number of squashed instructions skipped by dispatch
system.cpu.iew.iewDispStoreInsts               133595                       # Number of dispatched store instructions
system.cpu.iew.iewDispatchedInsts            14487665                       # Number of instructions dispatched to IQ
system.cpu.iew.iewExecLoadInsts               2636525                       # Number of load instructions executed
system.cpu.iew.iewExecSquashedInsts              2589                       # Number of squashed instructions skipped in execute
system.cpu.iew.iewExecutedInsts              14493358                       # Number of executed instructions
system.cpu.iew.iewIQFullEvents                    983                       # Number of times the IQ has become full, causing a stall
system.cpu.iew.iewIdleCycles                        0                       # Number of cycles IEW is idle
system.cpu.iew.iewLSQFullEvents                 16092                       # Number of times the LSQ has become full, causing a stall
system.cpu.iew.iewSquashCycles                    899                       # Number of cycles IEW is squashing
system.cpu.iew.iewUnblockCycles                 17160                       # Number of cycles IEW is unblocking
system.cpu.iew.memOrderViolationEvents              9                       # Number of memory order violations
system.cpu.iew.predictedNotTakenIncorrect          654                       # Number of branches that were predicted not taken incorrectly
system.cpu.iew.predictedTakenIncorrect            328                       # Number of branches that were predicted taken incorrectly
system.cpu.iew.wb_consumers                   9763601                       # num instructions consuming a value
system.cpu.iew.wb_count                      14480153                       # cumulative count of insts written-back
system.cpu.iew.wb_fanout                     0.685613                       # average fanout of values written-back
system.cpu.iew.wb_producers                   6694050                       # num instructions producing a value
system.cpu.iew.wb_rate                       3.622970                       # insts written-back per cycle
system.cpu.iew.wb_sent                       14480565                       # cumulative count of insts sent to commit
system.cpu.int_regfile_reads                  8124541                       # number of integer regfile reads
system.cpu.int_regfile_writes                 2152383                       # number of integer regfile writes
system.cpu.ipc                               2.027684                       # IPC: Instructions Per Cycle
system.cpu.ipc_total                         2.027684                       # IPC: Total IPC of All Threads
system.cpu.iq.FU_type_0::No_OpClass              1002      0.01%      0.01% # Type of FU issued
system.cpu.iq.FU_type_0::IntAlu               2546652     17.57%     17.57% # Type of FU issued
system.cpu.iq.FU_type_0::IntMult                    5      0.00%     17.57% # Type of FU issued
system.cpu.iq.FU_type_0::IntDiv                    21      0.00%     17.58% # Type of FU issued
system.cpu.iq.FU_type_0::FloatAdd             4720919     32.57%     50.14% # Type of FU issued
system.cpu.iq.FU_type_0::FloatCmp                   0      0.00%     50.14% # Type of FU issued
system.cpu.iq.FU_type_0::FloatCvt                   0      0.00%     50.14% # Type of FU issued
system.cpu.iq.FU_type_0::FloatMult                  0      0.00%     50.14% # Type of FU issued
system.cpu.iq.FU_type_0::FloatMultAcc               0      0.00%     50.14% # Type of FU issued
system.cpu.iq.FU_type_0::FloatDiv                   0      0.00%     50.14% # Type of FU issued
system.cpu.iq.FU_type_0::FloatMisc                  0      0.00%     50.14% # Type of FU issued
system.cpu.iq.FU_type_0::FloatSqrt                  0      0.00%     50.14% # Type of FU issued
system.cpu.iq.FU_type_0::SimdAdd                    0      0.00%     50.14% # Type of FU issued
system.cpu.iq.FU_type_0::SimdAddAcc                 0      0.00%     50.14% # Type of FU issued
system.cpu.iq.FU_type_0::SimdAlu                  157      0.00%     50.14% # Type of FU issued
system.cpu.iq.FU_type_0::SimdCmp                    0      0.00%     50.14% # Type of FU issued
system.cpu.iq.FU_type_0::SimdCvt                   47      0.00%     50.14% # Type of FU issued
system.cpu.iq.FU_type_0::SimdMisc              262366      1.81%     51.95% # Type of FU issued
system.cpu.iq.FU_type_0::SimdMult                   0      0.00%     51.95% # Type of FU issued
system.cpu.iq.FU_type_0::SimdMultAcc                0      0.00%     51.95% # Type of FU issued
system.cpu.iq.FU_type_0::SimdShift                  0      0.00%     51.95% # Type of FU issued
system.cpu.iq.FU_type_0::SimdShiftAcc               0      0.00%     51.95% # Type of FU issued
system.cpu.iq.FU_type_0::SimdDiv                    0      0.00%     51.95% # Type of FU issued
system.cpu.iq.FU_type_0::SimdSqrt                   0      0.00%     51.95% # Type of FU issued
system.cpu.iq.FU_type_0::SimdFloatAdd         2097152     14.47%     66.42% # Type of FU issued
system.cpu.iq.FU_type_0::SimdFloatAlu               0      0.00%     66.42% # Type of FU issued
system.cpu.iq.FU_type_0::SimdFloatCmp               0      0.00%     66.42% # Type of FU issued
system.cpu.iq.FU_type_0::SimdFloatCvt               0      0.00%     66.42% # Type of FU issued
system.cpu.iq.FU_type_0::SimdFloatDiv               0      0.00%     66.42% # Type of FU issued
system.cpu.iq.FU_type_0::SimdFloatMisc              0      0.00%     66.42% # Type of FU issued
system.cpu.iq.FU_type_0::SimdFloatMult        2097152     14.47%     80.89% # Type of FU issued
system.cpu.iq.FU_type_0::SimdFloatMultAcc            0      0.00%     80.89% # Type of FU issued
system.cpu.iq.FU_type_0::SimdFloatSqrt              0      0.00%     80.89% # Type of FU issued
system.cpu.iq.FU_type_0::SimdReduceAdd              0      0.00%     80.89% # Type of FU issued
system.cpu.iq.FU_type_0::SimdReduceAlu              0      0.00%     80.89% # Type of FU issued
system.cpu.iq.FU_type_0::SimdReduceCmp              0      0.00%     80.89% # Type of FU issued
system.cpu.iq.FU_type_0::SimdFloatReduceAdd            0      0.00%     80.89% # Type of FU issued
system.cpu.iq.FU_type_0::SimdFloatReduceCmp            0      0.00%     80.89% # Type of FU issued
system.cpu.iq.FU_type_0::SimdAes                    0      0.00%     80.89% # Type of FU issued
system.cpu.iq.FU_type_0::SimdAesMix                 0      0.00%     80.89% # Type of FU issued
system.cpu.iq.FU_type_0::SimdSha1Hash               0      0.00%     80.89% # Type of FU issued
system.cpu.iq.FU_type_0::SimdSha1Hash2              0      0.00%     80.89% # Type of FU issued
system.cpu.iq.FU_type_0::SimdSha256Hash             0      0.00%     80.89% # Type of FU issued
system.cpu.iq.FU_type_0::SimdSha256Hash2            0      0.00%     80.89% # Type of FU issued
system.cpu.iq.FU_type_0::SimdShaSigma2              0      0.00%     80.89% # Type of FU issued
system.cpu.iq.FU_type_0::SimdShaSigma3              0      0.00%     80.89% # Type of FU issued
system.cpu.iq.FU_type_0::SimdPredAlu                0      0.00%     80.89% # Type of FU issued
system.cpu.iq.FU_type_0::MemRead                 2716      0.02%     80.91% # Type of FU issued
system.cpu.iq.FU_type_0::MemWrite                1645      0.01%     80.92% # Type of FU issued
system.cpu.iq.FU_type_0::FloatMemRead         2634519     18.17%     99.09% # Type of FU issued
system.cpu.iq.FU_type_0::FloatMemWrite         131600      0.91%    100.00% # Type of FU issued
system.cpu.iq.FU_type_0::IprAccess                  0      0.00%    100.00% # Type of FU issued
system.cpu.iq.FU_type_0::InstPrefetch               0      0.00%    100.00% # Type of FU issued
system.cpu.iq.FU_type_0::total               14495953                       # Type of FU issued
system.cpu.iq.fp_alu_accesses                12244692                       # Number of floating point alu accesses
system.cpu.iq.fp_inst_queue_reads            24254826                       # Number of floating instruction queue reads
system.cpu.iq.fp_inst_queue_wakeup_accesses     11995444                       # Number of floating instruction queue wakeup accesses
system.cpu.iq.fp_inst_queue_writes           12002455                       # Number of floating instruction queue writes
system.cpu.iq.fu_busy_cnt                      235360                       # FU busy when requested
system.cpu.iq.fu_busy_rate                   0.016236                       # FU busy rate (busy events/executed inst)
system.cpu.iq.fu_full::No_OpClass                   0      0.00%      0.00% # attempts to use FU when none available
system.cpu.iq.fu_full::IntAlu                     209      0.09%      0.09% # attempts to use FU when none available
system.cpu.iq.fu_full::IntMult                      0      0.00%      0.09% # attempts to use FU when none available
system.cpu.iq.fu_full::IntDiv                       0      0.00%      0.09% # attempts to use FU when none available
system.cpu.iq.fu_full::FloatAdd                 82039     34.86%     34.95% # attempts to use FU when none available
system.cpu.iq.fu_full::FloatCmp                     0      0.00%     34.95% # attempts to use FU when none available
system.cpu.iq.fu_full::FloatCvt                     0      0.00%     34.95% # attempts to use FU when none available
system.cpu.iq.fu_full::FloatMult                    0      0.00%     34.95% # attempts to use FU when none available
system.cpu.iq.fu_full::FloatMultAcc                 0      0.00%     34.95% # attempts to use FU when none available
system.cpu.iq.fu_full::FloatDiv                     0      0.00%     34.95% # attempts to use FU when none available
system.cpu.iq.fu_full::FloatMisc                    0      0.00%     34.95% # attempts to use FU when none available
system.cpu.iq.fu_full::FloatSqrt                    0      0.00%     34.95% # attempts to use FU when none available
system.cpu.iq.fu_full::SimdAdd                      0      0.00%     34.95% # attempts to use FU when none available
system.cpu.iq.fu_full::SimdAddAcc                   0      0.00%     34.95% # attempts to use FU when none available
system.cpu.iq.fu_full::SimdAlu                     10      0.00%     34.95% # attempts to use FU when none available
system.cpu.iq.fu_full::SimdCmp                      0      0.00%     34.95% # attempts to use FU when none available
system.cpu.iq.fu_full::SimdCvt                      1      0.00%     34.95% # attempts to use FU when none available
system.cpu.iq.fu_full::SimdMisc                 33459     14.22%     49.17% # attempts to use FU when none available
system.cpu.iq.fu_full::SimdMult                     0      0.00%     49.17% # attempts to use FU when none available
system.cpu.iq.fu_full::SimdMultAcc                  0      0.00%     49.17% # attempts to use FU when none available
system.cpu.iq.fu_full::SimdShift                    0      0.00%     49.17% # attempts to use FU when none available
system.cpu.iq.fu_full::SimdShiftAcc                 0      0.00%     49.17% # attempts to use FU when none available
system.cpu.iq.fu_full::SimdDiv                      0      0.00%     49.17% # attempts to use FU when none available
system.cpu.iq.fu_full::SimdSqrt                     0      0.00%     49.17% # attempts to use FU when none available
system.cpu.iq.fu_full::SimdFloatAdd             31517     13.39%     62.56% # attempts to use FU when none available
system.cpu.iq.fu_full::SimdFloatAlu                 0      0.00%     62.56% # attempts to use FU when none available
system.cpu.iq.fu_full::SimdFloatCmp                 0      0.00%     62.56% # attempts to use FU when none available
system.cpu.iq.fu_full::SimdFloatCvt                 0      0.00%     62.56% # attempts to use FU when none available
system.cpu.iq.fu_full::SimdFloatDiv                 0      0.00%     62.56% # attempts to use FU when none available
system.cpu.iq.fu_full::SimdFloatMisc                0      0.00%     62.56% # attempts to use FU when none available
system.cpu.iq.fu_full::SimdFloatMult            85840     36.47%     99.03% # attempts to use FU when none available
system.cpu.iq.fu_full::SimdFloatMultAcc             0      0.00%     99.03% # attempts to use FU when none available
system.cpu.iq.fu_full::SimdFloatSqrt                0      0.00%     99.03% # attempts to use FU when none available
system.cpu.iq.fu_full::SimdReduceAdd                0      0.00%     99.03% # attempts to use FU when none available
system.cpu.iq.fu_full::SimdReduceAlu                0      0.00%     99.03% # attempts to use FU when none available
system.cpu.iq.fu_full::SimdReduceCmp                0      0.00%     99.03% # attempts to use FU when none available
system.cpu.iq.fu_full::SimdFloatReduceAdd            0      0.00%     99.03% # attempts to use FU when none available
system.cpu.iq.fu_full::SimdFloatReduceCmp            0      0.00%     99.03% # attempts to use FU when none available
system.cpu.iq.fu_full::SimdAes                      0      0.00%     99.03% # attempts to use FU when none available
system.cpu.iq.fu_full::SimdAesMix                   0      0.00%     99.03% # attempts to use FU when none available
system.cpu.iq.fu_full::SimdSha1Hash                 0      0.00%     99.03% # attempts to use FU when none available
system.cpu.iq.fu_full::SimdSha1Hash2                0      0.00%     99.03% # attempts to use FU when none available
system.cpu.iq.fu_full::SimdSha256Hash               0      0.00%     99.03% # attempts to use FU when none available
system.cpu.iq.fu_full::SimdSha256Hash2              0      0.00%     99.03% # attempts to use FU when none available
system.cpu.iq.fu_full::SimdShaSigma2                0      0.00%     99.03% # attempts to use FU when none available
system.cpu.iq.fu_full::SimdShaSigma3                0      0.00%     99.03% # attempts to use FU when none available
system.cpu.iq.fu_full::SimdPredAlu                  0      0.00%     99.03% # attempts to use FU when none available
system.cpu.iq.fu_full::MemRead                     30      0.01%     99.04% # attempts to use FU when none available
system.cpu.iq.fu_full::MemWrite                    19      0.01%     99.05% # attempts to use FU when none available
system.cpu.iq.fu_full::FloatMemRead              2229      0.95%    100.00% # attempts to use FU when none available
system.cpu.iq.fu_full::FloatMemWrite                7      0.00%    100.00% # attempts to use FU when none available
system.cpu.iq.fu_full::IprAccess                    0      0.00%    100.00% # attempts to use FU when none available
system.cpu.iq.fu_full::InstPrefetch                 0      0.00%    100.00% # attempts to use FU when none available
system.cpu.iq.int_alu_accesses                2485619                       # Number of integer alu accesses
system.cpu.iq.int_inst_queue_reads            8931998                       # Number of integer instruction queue reads
system.cpu.iq.int_inst_queue_wakeup_accesses      2484709                       # Number of integer instruction queue wakeup accesses
system.cpu.iq.int_inst_queue_writes           2502240                       # Number of integer instruction queue writes
system.cpu.iq.iqInstsAdded                   14487663                       # Number of instructions added to the IQ (excludes non-spec)
system.cpu.iq.iqInstsIssued                  14495953                       # Number of instructions issued
system.cpu.iq.iqNonSpecInstsAdded                   2                       # Number of non-speculative instructions added to the IQ
system.cpu.iq.iqSquashedInstsExamined           17022                       # Number of squashed instructions iterated over during squash; mainly for profiling
system.cpu.iq.iqSquashedInstsIssued               579                       # Number of squashed instructions issued
system.cpu.iq.iqSquashedNonSpecRemoved              2                       # Number of squashed non-spec instructions that were removed
system.cpu.iq.iqSquashedOperandsExamined        17955                       # Number of squashed operands that are examined and possibly removed from graph
system.cpu.iq.issued_per_cycle::samples       3958985                       # Number of insts issued each cycle
system.cpu.iq.issued_per_cycle::mean         3.661533                       # Number of insts issued each cycle
system.cpu.iq.issued_per_cycle::stdev        2.731681                       # Number of insts issued each cycle
system.cpu.iq.issued_per_cycle::underflows            0      0.00%      0.00% # Number of insts issued each cycle
system.cpu.iq.issued_per_cycle::0              355767      8.99%      8.99% # Number of insts issued each cycle
system.cpu.iq.issued_per_cycle::1             1121410     28.33%     37.31% # Number of insts issued each cycle
system.cpu.iq.issued_per_cycle::2              337622      8.53%     45.84% # Number of insts issued each cycle
system.cpu.iq.issued_per_cycle::3              212700      5.37%     51.21% # Number of insts issued each cycle
system.cpu.iq.issued_per_cycle::4              254986      6.44%     57.65% # Number of insts issued each cycle
system.cpu.iq.issued_per_cycle::5              206708      5.22%     62.87% # Number of insts issued each cycle
system.cpu.iq.issued_per_cycle::6              589307     14.89%     77.76% # Number of insts issued each cycle
system.cpu.iq.issued_per_cycle::7              572007     14.45%     92.21% # Number of insts issued each cycle
system.cpu.iq.issued_per_cycle::8              308478      7.79%    100.00% # Number of insts issued each cycle
system.cpu.iq.issued_per_cycle::overflows            0      0.00%    100.00% # Number of insts issued each cycle
system.cpu.iq.issued_per_cycle::min_value            0                       # Number of insts issued each cycle
system.cpu.iq.issued_per_cycle::max_value            8                       # Number of insts issued each cycle
system.cpu.iq.issued_per_cycle::total         3958985                       # Number of insts issued each cycle
system.cpu.iq.rate                           3.626923                       # Inst issue rate
system.cpu.iq.vec_alu_accesses                      0                       # Number of vector alu accesses
system.cpu.iq.vec_inst_queue_reads                  0                       # Number of vector instruction queue reads
system.cpu.iq.vec_inst_queue_wakeup_accesses            0                       # Number of vector instruction queue wakeup accesses
system.cpu.iq.vec_inst_queue_writes                 0                       # Number of vector instruction queue writes
system.cpu.memDep0.conflictingLoads                27                       # Number of conflicting loads.
system.cpu.memDep0.conflictingStores               13                       # Number of conflicting stores.
system.cpu.memDep0.insertedLoads              2625544                       # Number of loads inserted to the mem dependence unit.
system.cpu.memDep0.insertedStores              133595                       # Number of stores inserted to the mem dependence unit.
system.cpu.misc_regfile_reads                 3365693                       # number of misc regfile reads
system.cpu.numCycles                          3996763                       # number of cpu cycles simulated
system.cpu.numWorkItemsCompleted                    0                       # number of work items this cpu completed
system.cpu.numWorkItemsStarted                      0                       # number of work items this cpu started
system.cpu.timesIdled                             322                       # Number of times that the entire CPU went into an idle state and unscheduled itself
system.cpu.workload.numSyscalls                    10                       # Number of system calls
system.membus.snoop_filter.hit_multi_requests            0                       # Number of requests hitting in the snoop filter with multiple (>1) holders of the requested data.
system.membus.snoop_filter.hit_multi_snoops            0                       # Number of snoops hitting in the snoop filter with multiple (>1) holders of the requested data.
system.membus.snoop_filter.hit_single_requests            0                       # Number of requests hitting in the snoop filter with a single holder of the requested data.
system.membus.snoop_filter.hit_single_snoops            0                       # Number of snoops hitting in the snoop filter with a single holder of the requested data.
system.membus.snoop_filter.tot_requests          3752                       # Total number of requests made to the snoop filter.
system.membus.snoop_filter.tot_snoops               0                       # Total number of snoops made to the snoop filter.
system.tol2bus.snoop_filter.hit_multi_requests            0                       # Number of requests hitting in the snoop filter with multiple (>1) holders of the requested data.
system.tol2bus.snoop_filter.hit_multi_snoops            0                       # Number of snoops hitting in the snoop filter with multiple (>1) holders of the requested data.
system.tol2bus.snoop_filter.hit_single_requests        25205                       # Number of requests hitting in the snoop filter with a single holder of the requested data.
system.tol2bus.snoop_filter.hit_single_snoops            0                       # Number of snoops hitting in the snoop filter with a single holder of the requested data.
system.tol2bus.snoop_filter.tot_requests        51871                       # Total number of requests made to the snoop filter.
system.tol2bus.snoop_filter.tot_snoops              0                       # Total number of snoops made to the snoop filter.
system.clk_domain.clock                          1000                       # Clock period in ticks
system.cpu.branchPred.lookups                  299119                       # Number of BP lookups
system.cpu.branchPred.condPredicted            297945                       # Number of conditional branches predicted
system.cpu.branchPred.condIncorrect               956                       # Number of conditional branches incorrect
system.cpu.branchPred.BTBLookups               264265                       # Number of BTB lookups
system.cpu.branchPred.BTBHits                  263521                       # Number of BTB hits
system.cpu.branchPred.BTBHitPct             99.718464                       # BTB Hit Percentage
system.cpu.branchPred.RASUsed                     282                       # Number of times the RAS was used to get a target.
system.cpu.branchPred.RASIncorrect                  0                       # Number of incorrect RAS predictions.
system.cpu.branchPred.indirectLookups             295                       # Number of indirect predictor lookups.
system.cpu.branchPred.indirectHits                 18                       # Number of indirect target hits.
system.cpu.branchPred.indirectMisses              277                       # Number of indirect misses.
system.cpu.branchPred.indirectMispredicted           89                       # Number of mispredicted indirect branches.
system.cpu.commit.commitSquashedInsts           16914                       # The number of squashed insts skipped by commit
system.cpu.commit.branchMispredicts               879                       # The number of times a branch was mispredicted
system.cpu.commit.numCommittedDist::samples      3956433                       # Number of insts commited each cycle
system.cpu.commit.numCommittedDist::mean     3.657494                       # Number of insts commited each cycle
system.cpu.commit.numCommittedDist::stdev     2.959191                       # Number of insts commited each cycle
system.cpu.commit.numCommittedDist::underflows            0      0.00%      0.00% # Number of insts commited each cycle
system.cpu.commit.numCommittedDist::0          849294     21.47%     21.47% # Number of insts commited each cycle
system.cpu.commit.numCommittedDist::1          585397     14.80%     36.26% # Number of insts commited each cycle
system.cpu.commit.numCommittedDist::2          310388      7.85%     44.11% # Number of insts commited each cycle
system.cpu.commit.numCommittedDist::3           40660      1.03%     45.14% # Number of insts commited each cycle
system.cpu.commit.numCommittedDist::4          405988     10.26%     55.40% # Number of insts commited each cycle
system.cpu.commit.numCommittedDist::5          787903     19.91%     75.31% # Number of insts commited each cycle
system.cpu.commit.numCommittedDist::6          100758      2.55%     77.86% # Number of insts commited each cycle
system.cpu.commit.numCommittedDist::7           33899      0.86%     78.71% # Number of insts commited each cycle
system.cpu.commit.numCommittedDist::8          842146     21.29%    100.00% # Number of insts commited each cycle
system.cpu.commit.numCommittedDist::overflows            0      0.00%    100.00% # Number of insts commited each cycle
system.cpu.commit.numCommittedDist::min_value            0                       # Number of insts commited each cycle
system.cpu.commit.numCommittedDist::max_value            8                       # Number of insts commited each cycle
system.cpu.commit.numCommittedDist::total      3956433                       # Number of insts commited each cycle
system.cpu.commit.instsCommitted              8104173                       # Number of instructions committed
system.cpu.commit.opsCommitted               14470629                       # Number of ops (including micro ops) committed
system.cpu.commit.memRefs                     2755586                       # Number of memory references committed
system.cpu.commit.loads                       2622923                       # Number of loads committed
system.cpu.commit.amos                              0                       # Number of atomic instructions committed
system.cpu.commit.membars                           0                       # Number of memory barriers committed
system.cpu.commit.branches                     296838                       # Number of branches committed
system.cpu.commit.vector                            0                       # Number of committed Vector instructions.
system.cpu.commit.floating                   11994221                       # Number of committed floating point instructions.
system.cpu.commit.integer                     5196288                       # Number of committed integer instructions.
system.cpu.commit.functionCalls                   144                       # Number of function calls committed.
system.cpu.commit.committedInstType_0::No_OpClass          536      0.00%      0.00% # Class of committed instruction
system.cpu.commit.committedInstType_0::IntAlu      2538951     17.55%     17.55% # Class of committed instruction
system.cpu.commit.committedInstType_0::IntMult            5      0.00%     17.55% # Class of committed instruction
system.cpu.commit.committedInstType_0::IntDiv           21      0.00%     17.55% # Class of committed instruction
system.cpu.commit.committedInstType_0::FloatAdd      4718727     32.61%     50.16% # Class of committed instruction
system.cpu.commit.committedInstType_0::FloatCmp            0      0.00%     50.16% # Class of committed instruction
system.cpu.commit.committedInstType_0::FloatCvt            0      0.00%     50.16% # Class of committed instruction
system.cpu.commit.committedInstType_0::FloatMult            0      0.00%     50.16% # Class of committed instruction
system.cpu.commit.committedInstType_0::FloatMultAcc            0      0.00%     50.16% # Class of committed instruction
system.cpu.commit.committedInstType_0::FloatDiv            0      0.00%     50.16% # Class of committed instruction
system.cpu.commit.committedInstType_0::FloatMisc            0      0.00%     50.16% # Class of committed instruction
system.cpu.commit.committedInstType_0::FloatSqrt            0      0.00%     50.16% # Class of committed instruction
system.cpu.commit.committedInstType_0::SimdAdd            0      0.00%     50.16% # Class of committed instruction
system.cpu.commit.committedInstType_0::SimdAddAcc            0      0.00%     50.16% # Class of committed instruction
system.cpu.commit.committedInstType_0::SimdAlu           94      0.00%     50.16% # Class of committed instruction
system.cpu.commit.committedInstType_0::SimdCmp            0      0.00%     50.16% # Class of committed instruction
system.cpu.commit.committedInstType_0::SimdCvt           46      0.00%     50.16% # Class of committed instruction
system.cpu.commit.committedInstType_0::SimdMisc       262359      1.81%     51.97% # Class of committed instruction
system.cpu.commit.committedInstType_0::SimdMult            0      0.00%     51.97% # Class of committed instruction
system.cpu.commit.committedInstType_0::SimdMultAcc            0      0.00%     51.97% # Class of committed instruction
system.cpu.commit.committedInstType_0::SimdShift            0      0.00%     51.97% # Class of committed instruction
system.cpu.commit.committedInstType_0::SimdShiftAcc            0      0.00%     51.97% # Class of committed instruction
system.cpu.commit.committedInstType_0::SimdDiv            0      0.00%     51.97% # Class of committed instruction
system.cpu.commit.committedInstType_0::SimdSqrt            0      0.00%     51.97% # Class of committed instruction
system.cpu.commit.committedInstType_0::SimdFloatAdd      2097152     14.49%     66.46% # Class of committed instruction
system.cpu.commit.committedInstType_0::SimdFloatAlu            0      0.00%     66.46% # Class of committed instruction
system.cpu.commit.committedInstType_0::SimdFloatCmp            0      0.00%     66.46% # Class of committed instruction
system.cpu.commit.committedInstType_0::SimdFloatCvt            0      0.00%     66.46% # Class of committed instruction
system.cpu.commit.committedInstType_0::SimdFloatDiv            0      0.00%     66.46% # Class of committed instruction
system.cpu.commit.committedInstType_0::SimdFloatMisc            0      0.00%     66.46% # Class of committed instruction
system.cpu.commit.committedInstType_0::SimdFloatMult      2097152     14.49%     80.96% # Class of committed instruction
system.cpu.commit.committedInstType_0::SimdFloatMultAcc            0      0.00%     80.96% # Class of committed instruction
system.cpu.commit.committedInstType_0::SimdFloatSqrt            0      0.00%     80.96% # Class of committed instruction
system.cpu.commit.committedInstType_0::SimdReduceAdd            0      0.00%     80.96% # Class of committed instruction
system.cpu.commit.committedInstType_0::SimdReduceAlu            0      0.00%     80.96% # Class of committed instruction
system.cpu.commit.committedInstType_0::SimdReduceCmp            0      0.00%     80.96% # Class of committed instruction
system.cpu.commit.committedInstType_0::SimdFloatReduceAdd            0      0.00%     80.96% # Class of committed instruction
system.cpu.commit.committedInstType_0::SimdFloatReduceCmp            0      0.00%     80.96% # Class of committed instruction
system.cpu.commit.committedInstType_0::SimdAes            0      0.00%     80.96% # Class of committed instruction
system.cpu.commit.committedInstType_0::SimdAesMix            0      0.00%     80.96% # Class of committed instruction
system.cpu.commit.committedInstType_0::SimdSha1Hash            0      0.00%     80.96% # Class of committed instruction
system.cpu.commit.committedInstType_0::SimdSha1Hash2            0      0.00%     80.96% # Class of committed instruction
system.cpu.commit.committedInstType_0::SimdSha256Hash            0      0.00%     80.96% # Class of committed instruction
system.cpu.commit.committedInstType_0::SimdSha256Hash2            0      0.00%     80.96% # Class of committed instruction
system.cpu.commit.committedInstType_0::SimdShaSigma2            0      0.00%     80.96% # Class of committed instruction
system.cpu.commit.committedInstType_0::SimdShaSigma3            0      0.00%     80.96% # Class of committed instruction
system.cpu.commit.committedInstType_0::SimdPredAlu            0      0.00%     80.96% # Class of committed instruction
system.cpu.commit.committedInstType_0::MemRead         1437      0.01%     80.97% # Class of committed instruction
system.cpu.commit.committedInstType_0::MemWrite         1133      0.01%     80.98% # Class of committed instruction
system.cpu.commit.committedInstType_0::FloatMemRead      2621486     18.12%     99.09% # Class of committed instruction
system.cpu.commit.committedInstType_0::FloatMemWrite       131530      0.91%    100.00% # Class of committed instruction
system.cpu.commit.committedInstType_0::IprAccess            0      0.00%    100.00% # Class of committed instruction
system.cpu.commit.committedInstType_0::InstPrefetch            0      0.00%    100.00% # Class of committed instruction
system.cpu.commit.committedInstType_0::total     14470629                       # Class of committed instruction
system.cpu.commit.commitEligibleSamples        842146                       # number cycles where commit BW limit reached
system.cpu.dcache.demand_hits::.cpu.data      2734552                       # number of demand (read+write) hits
system.cpu.dcache.demand_hits::total          2734552                       # number of demand (read+write) hits
system.cpu.dcache.overall_hits::.cpu.data      2734552                       # number of overall hits
system.cpu.dcache.overall_hits::total         2734552                       # number of overall hits
system.cpu.dcache.demand_misses::.cpu.data       153446                       # number of demand (read+write) misses
system.cpu.dcache.demand_misses::total         153446                       # number of demand (read+write) misses
system.cpu.dcache.overall_misses::.cpu.data       153446                       # number of overall misses
system.cpu.dcache.overall_misses::total        153446                       # number of overall misses
system.cpu.dcache.demand_miss_latency::.cpu.data   2826462999                       # number of demand (read+write) miss cycles
system.cpu.dcache.demand_miss_latency::total   2826462999                       # number of demand (read+write) miss cycles
system.cpu.dcache.overall_miss_latency::.cpu.data   2826462999                       # number of overall miss cycles
system.cpu.dcache.overall_miss_latency::total   2826462999                       # number of overall miss cycles
system.cpu.dcache.demand_accesses::.cpu.data      2887998                       # number of demand (read+write) accesses
system.cpu.dcache.demand_accesses::total      2887998                       # number of demand (read+write) accesses
system.cpu.dcache.overall_accesses::.cpu.data      2887998                       # number of overall (read+write) accesses
system.cpu.dcache.overall_accesses::total      2887998                       # number of overall (read+write) accesses
system.cpu.dcache.demand_miss_rate::.cpu.data     0.053132                       # miss rate for demand accesses
system.cpu.dcache.demand_miss_rate::total     0.053132                       # miss rate for demand accesses
system.cpu.dcache.overall_miss_rate::.cpu.data     0.053132                       # miss rate for overall accesses
system.cpu.dcache.overall_miss_rate::total     0.053132                       # miss rate for overall accesses
system.cpu.dcache.demand_avg_miss_latency::.cpu.data 18419.919705                       # average overall miss latency
system.cpu.dcache.demand_avg_miss_latency::total 18419.919705                       # average overall miss latency
system.cpu.dcache.overall_avg_miss_latency::.cpu.data 18419.919705                       # average overall miss latency
system.cpu.dcache.overall_avg_miss_latency::total 18419.919705                       # average overall miss latency
system.cpu.dcache.blocked_cycles::no_mshrs        37573                       # number of cycles access was blocked
system.cpu.dcache.blocked_cycles::no_targets            0                       # number of cycles access was blocked
system.cpu.dcache.blocked::no_mshrs              1641                       # number of cycles access was blocked
system.cpu.dcache.blocked::no_targets               0                       # number of cycles access was blocked
system.cpu.dcache.avg_blocked_cycles::no_mshrs    22.896405                       # average number of cycles each access was blocked
system.cpu.dcache.avg_blocked_cycles::no_targets          nan                       # average number of cycles each access was blocked
system.cpu.dcache.writebacks::.writebacks        15110                       # number of writebacks
system.cpu.dcache.writebacks::total             15110                       # number of writebacks
system.cpu.dcache.demand_mshr_hits::.cpu.data       127237                       # number of demand (read+write) MSHR hits
system.cpu.dcache.demand_mshr_hits::total       127237                       # number of demand (read+write) MSHR hits
system.cpu.dcache.overall_mshr_hits::.cpu.data       127237                       # number of overall MSHR hits
system.cpu.dcache.overall_mshr_hits::total       127237                       # number of overall MSHR hits
system.cpu.dcache.demand_mshr_misses::.cpu.data        26209                       # number of demand (read+write) MSHR misses
system.cpu.dcache.demand_mshr_misses::total        26209                       # number of demand (read+write) MSHR misses
system.cpu.dcache.overall_mshr_misses::.cpu.data        26209                       # number of overall MSHR misses
system.cpu.dcache.overall_mshr_misses::total        26209                       # number of overall MSHR misses
system.cpu.dcache.demand_mshr_miss_latency::.cpu.data    533671999                       # number of demand (read+write) MSHR miss cycles
system.cpu.dcache.demand_mshr_miss_latency::total    533671999                       # number of demand (read+write) MSHR miss cycles
system.cpu.dcache.overall_mshr_miss_latency::.cpu.data    533671999                       # number of overall MSHR miss cycles
system.cpu.dcache.overall_mshr_miss_latency::total    533671999                       # number of overall MSHR miss cycles
system.cpu.dcache.demand_mshr_miss_rate::.cpu.data     0.009075                       # mshr miss rate for demand accesses
system.cpu.dcache.demand_mshr_miss_rate::total     0.009075                       # mshr miss rate for demand accesses
system.cpu.dcache.overall_mshr_miss_rate::.cpu.data     0.009075                       # mshr miss rate for overall accesses
system.cpu.dcache.overall_mshr_miss_rate::total     0.009075                       # mshr miss rate for overall accesses
system.cpu.dcache.demand_avg_mshr_miss_latency::.cpu.data 20362.165630                       # average overall mshr miss latency
system.cpu.dcache.demand_avg_mshr_miss_latency::total 20362.165630                       # average overall mshr miss latency
system.cpu.dcache.overall_avg_mshr_miss_latency::.cpu.data 20362.165630                       # average overall mshr miss latency
system.cpu.dcache.overall_avg_mshr_miss_latency::total 20362.165630                       # average overall mshr miss latency
system.cpu.dcache.replacements                  25185                       # number of replacements
system.cpu.dcache.ReadReq_hits::.cpu.data      2602051                       # number of ReadReq hits
system.cpu.dcache.ReadReq_hits::total         2602051                       # number of ReadReq hits
system.cpu.dcache.ReadReq_misses::.cpu.data       153283                       # number of ReadReq misses
system.cpu.dcache.ReadReq_misses::total        153283                       # number of ReadReq misses
system.cpu.dcache.ReadReq_miss_latency::.cpu.data   2817031500                       # number of ReadReq miss cycles
system.cpu.dcache.ReadReq_miss_latency::total   2817031500                       # number of ReadReq miss cycles
system.cpu.dcache.ReadReq_accesses::.cpu.data      2755334                       # number of ReadReq accesses(hits+misses)
system.cpu.dcache.ReadReq_accesses::total      2755334                       # number of ReadReq accesses(hits+misses)
system.cpu.dcache.ReadReq_miss_rate::.cpu.data     0.055631                       # miss rate for ReadReq accesses
system.cpu.dcache.ReadReq_miss_rate::total     0.055631                       # miss rate for ReadReq accesses
system.cpu.dcache.ReadReq_avg_miss_latency::.cpu.data 18377.977336                       # average ReadReq miss latency
system.cpu.dcache.ReadReq_avg_miss_latency::total 18377.977336                       # average ReadReq miss latency
system.cpu.dcache.ReadReq_mshr_hits::.cpu.data       127236                       # number of ReadReq MSHR hits
system.cpu.dcache.ReadReq_mshr_hits::total       127236                       # number of ReadReq MSHR hits
system.cpu.dcache.ReadReq_mshr_misses::.cpu.data        26047                       # number of ReadReq MSHR misses
system.cpu.dcache.ReadReq_mshr_misses::total        26047                       # number of ReadReq MSHR misses
system.cpu.dcache.ReadReq_mshr_miss_latency::.cpu.data    524412000                       # number of ReadReq MSHR miss cycles
system.cpu.dcache.ReadReq_mshr_miss_latency::total    524412000                       # number of ReadReq MSHR miss cycles
system.cpu.dcache.ReadReq_mshr_miss_rate::.cpu.data     0.009453                       # mshr miss rate for ReadReq accesses
system.cpu.dcache.ReadReq_mshr_miss_rate::total     0.009453                       # mshr miss rate for ReadReq accesses
system.cpu.dcache.ReadReq_avg_mshr_miss_latency::.cpu.data 20133.297501                       # average ReadReq mshr miss latency
system.cpu.dcache.ReadReq_avg_mshr_miss_latency::total 20133.297501                       # average ReadReq mshr miss latency
system.cpu.dcache.WriteReq_hits::.cpu.data       132501                       # number of WriteReq hits
system.cpu.dcache.WriteReq_hits::total         132501                       # number of WriteReq hits
system.cpu.dcache.WriteReq_misses::.cpu.data          163                       # number of WriteReq misses
system.cpu.dcache.WriteReq_misses::total          163                       # number of WriteReq misses
system.cpu.dcache.WriteReq_miss_latency::.cpu.data      9431499                       # number of WriteReq miss cycles
system.cpu.dcache.WriteReq_miss_latency::total      9431499                       # number of WriteReq miss cycles
system.cpu.dcache.WriteReq_accesses::.cpu.data       132664                       # number of WriteReq accesses(hits+misses)
system.cpu.dcache.WriteReq_accesses::total       132664                       # number of WriteReq accesses(hits+misses)
system.cpu.dcache.WriteReq_miss_rate::.cpu.data     0.001229                       # miss rate for WriteReq accesses
system.cpu.dcache.WriteReq_miss_rate::total     0.001229                       # miss rate for WriteReq accesses
system.cpu.dcache.WriteReq_avg_miss_latency::.cpu.data 57861.957055                       # average WriteReq miss latency
system.cpu.dcache.WriteReq_avg_miss_latency::total 57861.957055                       # average WriteReq miss latency
system.cpu.dcache.WriteReq_mshr_hits::.cpu.data            1                       # number of WriteReq MSHR hits
system.cpu.dcache.WriteReq_mshr_hits::total            1                       # number of WriteReq MSHR hits
system.cpu.dcache.WriteReq_mshr_misses::.cpu.data          162                       # number of WriteReq MSHR misses
system.cpu.dcache.WriteReq_mshr_misses::total          162                       # number of WriteReq MSHR misses
system.cpu.dcache.WriteReq_mshr_miss_latency::.cpu.data      9259999                       # number of WriteReq MSHR miss cycles
system.cpu.dcache.WriteReq_mshr_miss_latency::total      9259999                       # number of WriteReq MSHR miss cycles
system.cpu.dcache.WriteReq_mshr_miss_rate::.cpu.data     0.001221                       # mshr miss rate for WriteReq accesses
system.cpu.dcache.WriteReq_mshr_miss_rate::total     0.001221                       # mshr miss rate for WriteReq accesses
system.cpu.dcache.WriteReq_avg_mshr_miss_latency::.cpu.data 57160.487654                       # average WriteReq mshr miss latency
system.cpu.dcache.WriteReq_avg_mshr_miss_latency::total 57160.487654                       # average WriteReq mshr miss latency
system.cpu.dcache.power_state.pwrStateResidencyTicks::UNDEFINED   1998381000                       # Cumulative time (in ticks) in various power states
system.cpu.dcache.tags.tagsinuse           975.239077                       # Cycle average of tags in use
system.cpu.dcache.tags.total_refs             2760761                       # Total number of references to valid blocks.
system.cpu.dcache.tags.sampled_refs             26209                       # Sample count of references to valid blocks.
system.cpu.dcache.tags.avg_refs            105.336373                       # Average number of references to valid blocks.
system.cpu.dcache.tags.warmup_cycle            176500                       # Cycle when the warmup percentage was hit.
system.cpu.dcache.tags.occ_blocks::.cpu.data   975.239077                       # Average occupied blocks per requestor
system.cpu.dcache.tags.occ_percent::.cpu.data     0.952382                       # Average percentage of cache occupancy
system.cpu.dcache.tags.occ_percent::total     0.952382                       # Average percentage of cache occupancy
system.cpu.dcache.tags.occ_task_id_blocks::1024         1024                       # Occupied blocks per task id
system.cpu.dcache.tags.age_task_id_blocks_1024::0          147                       # Occupied blocks per task id
system.cpu.dcache.tags.age_task_id_blocks_1024::1          111                       # Occupied blocks per task id
system.cpu.dcache.tags.age_task_id_blocks_1024::2          507                       # Occupied blocks per task id
system.cpu.dcache.tags.age_task_id_blocks_1024::3          259                       # Occupied blocks per task id
system.cpu.dcache.tags.occ_task_id_percent::1024            1                       # Percentage of cache occupancy per task id
system.cpu.dcache.tags.tag_accesses          11578201                       # Number of tag accesses
system.cpu.dcache.tags.data_accesses         11578201                       # Number of data accesses
system.cpu.dcache.tags.power_state.pwrStateResidencyTicks::UNDEFINED   1998381000                       # Cumulative time (in ticks) in various power states
system.cpu.decode.idleCycles                  1599902                       # Number of cycles decode is idle
system.cpu.decode.blockedCycles                287341                       # Number of cycles decode is blocked
system.cpu.decode.runCycles                   2061280                       # Number of cycles decode is running
system.cpu.decode.unblockCycles                  9563                       # Number of cycles decode is unblocking
system.cpu.decode.squashCycles                    899                       # Number of cycles decode is squashing
system.cpu.decode.branchResolved               263654                       # Number of times decode resolved a  branch
system.cpu.decode.branchMispred                   216                       # Number of times decode detected a branch misprediction
system.cpu.decode.decodedInsts               14496741                       # Number of instructions handled by decode
system.cpu.decode.squashedInsts                  1122                       # Number of squashed instructions handled by decode
system.cpu.dtb.rdAccesses                     2755609                       # TLB accesses on read requests
system.cpu.dtb.wrAccesses                      133172                       # TLB accesses on write requests
system.cpu.dtb.rdMisses                           127                       # TLB misses on read requests
system.cpu.dtb.wrMisses                            23                       # TLB misses on write requests
system.cpu.dtb.walker.power_state.pwrStateResidencyTicks::UNDEFINED   1998381000                       # Cumulative time (in ticks) in various power states
system.cpu.dtb_walker_cache.blocked_cycles::no_mshrs            0                       # number of cycles access was blocked
system.cpu.dtb_walker_cache.blocked_cycles::no_targets            0                       # number of cycles access was blocked
system.cpu.dtb_walker_cache.blocked::no_mshrs            0                       # number of cycles access was blocked
system.cpu.dtb_walker_cache.blocked::no_targets            0                       # number of cycles access was blocked
system.cpu.dtb_walker_cache.avg_blocked_cycles::no_mshrs          nan                       # average number of cycles each access was blocked
system.cpu.dtb_walker_cache.avg_blocked_cycles::no_targets          nan                       # average number of cycles each access was blocked
system.cpu.dtb_walker_cache.replacements            0                       # number of replacements
system.cpu.dtb_walker_cache.power_state.pwrStateResidencyTicks::UNDEFINED   1998381000                       # Cumulative time (in ticks) in various power states
system.cpu.dtb_walker_cache.tags.tagsinuse            0                       # Cycle average of tags in use
system.cpu.dtb_walker_cache.tags.total_refs            0                       # Total number of references to valid blocks.
system.cpu.dtb_walker_cache.tags.sampled_refs            0                       # Sample count of references to valid blocks.
system.cpu.dtb_walker_cache.tags.avg_refs          nan                       # Average number of references to valid blocks.
system.cpu.dtb_walker_cache.tags.warmup_cycle            0                       # Cycle when the warmup percentage was hit.
system.cpu.dtb_walker_cache.tags.tag_accesses            0                       # Number of tag accesses
system.cpu.dtb_walker_cache.tags.data_accesses            0                       # Number of data accesses
system.cpu.dtb_walker_cache.tags.power_state.pwrStateResidencyTicks::UNDEFINED   1998381000                       # Cumulative time (in ticks) in various power states
system.cpu.fetch.icacheStallCycles            1101046                       # Number of cycles fetch is stalled on an Icache miss
system.cpu.fetch.insts                        8119148                       # Number of instructions fetch has processed
system.cpu.fetch.branches                      299119                       # Number of branches that fetch encountered
system.cpu.fetch.predictedBranches             263821                       # Number of branches that fetch has predicted taken
system.cpu.fetch.cycles                       2855799                       # Number of cycles fetch has run and was not squashing or blocked
system.cpu.fetch.squashCycles                    2216                       # Number of cycles fetch has spent squashing
system.cpu.fetch.miscStallCycles                  145                       # Number of cycles fetch has spent waiting on interrupts,or bad addresses, or out of MSHRs
system.cpu.fetch.pendingTrapStallCycles           851                       # Number of stall cycles due to pending traps
system.cpu.fetch.pendingQuiesceStallCycles           20                       # Number of stall cycles due to pending quiesce instructions
system.cpu.fetch.icacheWaitRetryStallCycles           16                       # Number of stall cycles due to full MSHR
system.cpu.fetch.cacheLines                   1084991                       # Number of cache lines fetched
system.cpu.fetch.icacheSquashes                   327                       # Number of outstanding Icache misses that were squashed
system.cpu.fetch.nisnDist::samples            3958985                       # Number of instructions fetched each cycle (Total)
system.cpu.fetch.nisnDist::mean              3.662735                       # Number of instructions fetched each cycle (Total)
system.cpu.fetch.nisnDist::stdev             3.895605                       # Number of instructions fetched each cycle (Total)
system.cpu.fetch.nisnDist::underflows               0      0.00%      0.00% # Number of instructions fetched each cycle (Total)
system.cpu.fetch.nisnDist::0                  1883832     47.58%     47.58% # Number of instructions fetched each cycle (Total)
system.cpu.fetch.nisnDist::1                   264472      6.68%     54.26% # Number of instructions fetched each cycle (Total)
system.cpu.fetch.nisnDist::2                      900      0.02%     54.29% # Number of instructions fetched each cycle (Total)
system.cpu.fetch.nisnDist::3                    33727      0.85%     55.14% # Number of instructions fetched each cycle (Total)
system.cpu.fetch.nisnDist::4                      786      0.02%     55.16% # Number of instructions fetched each cycle (Total)
system.cpu.fetch.nisnDist::5                      798      0.02%     55.18% # Number of instructions fetched each cycle (Total)
system.cpu.fetch.nisnDist::6                    33538      0.85%     56.03% # Number of instructions fetched each cycle (Total)
system.cpu.fetch.nisnDist::7                     2559      0.06%     56.09% # Number of instructions fetched each cycle (Total)
system.cpu.fetch.nisnDist::8                  1738373     43.91%    100.00% # Number of instructions fetched each cycle (Total)
system.cpu.fetch.nisnDist::overflows                0      0.00%    100.00% # Number of instructions fetched each cycle (Total)
system.cpu.fetch.nisnDist::min_value                0                       # Number of instructions fetched each cycle (Total)
system.cpu.fetch.nisnDist::max_value                8                       # Number of instructions fetched each cycle (Total)
system.cpu.fetch.nisnDist::total              3958985                       # Number of instructions fetched each cycle (Total)
system.cpu.fetch.branchRate                  0.074840                       # Number of branch fetches per cycle
system.cpu.fetch.rate                        2.031431                       # Number of inst fetches per cycle
system.cpu.icache.demand_hits::.cpu.inst      1084394                       # number of demand (read+write) hits
system.cpu.icache.demand_hits::total          1084394                       # number of demand (read+write) hits
system.cpu.icache.overall_hits::.cpu.inst      1084394                       # number of overall hits
system.cpu.icache.overall_hits::total         1084394                       # number of overall hits
system.cpu.icache.demand_misses::.cpu.inst          597                       # number of demand (read+write) misses
system.cpu.icache.demand_misses::total            597                       # number of demand (read+write) misses
system.cpu.icache.overall_misses::.cpu.inst          597                       # number of overall misses
system.cpu.icache.overall_misses::total           597                       # number of overall misses
system.cpu.icache.demand_miss_latency::.cpu.inst     45498500                       # number of demand (read+write) miss cycles
system.cpu.icache.demand_miss_latency::total     45498500                       # number of demand (read+write) miss cycles
system.cpu.icache.overall_miss_latency::.cpu.inst     45498500                       # number of overall miss cycles
system.cpu.icache.overall_miss_latency::total     45498500                       # number of overall miss cycles
system.cpu.icache.demand_accesses::.cpu.inst      1084991                       # number of demand (read+write) accesses
system.cpu.icache.demand_accesses::total      1084991                       # number of demand (read+write) accesses
system.cpu.icache.overall_accesses::.cpu.inst      1084991                       # number of overall (read+write) accesses
system.cpu.icache.overall_accesses::total      1084991                       # number of overall (read+write) accesses
system.cpu.icache.demand_miss_rate::.cpu.inst     0.000550                       # miss rate for demand accesses
system.cpu.icache.demand_miss_rate::total     0.000550                       # miss rate for demand accesses
system.cpu.icache.overall_miss_rate::.cpu.inst     0.000550                       # miss rate for overall accesses
system.cpu.icache.overall_miss_rate::total     0.000550                       # miss rate for overall accesses
system.cpu.icache.demand_avg_miss_latency::.cpu.inst 76211.892797                       # average overall miss latency
system.cpu.icache.demand_avg_miss_latency::total 76211.892797                       # average overall miss latency
system.cpu.icache.overall_avg_miss_latency::.cpu.inst 76211.892797                       # average overall miss latency
system.cpu.icache.overall_avg_miss_latency::total 76211.892797                       # average overall miss latency
system.cpu.icache.blocked_cycles::no_mshrs           41                       # number of cycles access was blocked
system.cpu.icache.blocked_cycles::no_targets            0                       # number of cycles access was blocked
system.cpu.icache.blocked::no_mshrs                 2                       # number of cycles access was blocked
system.cpu.icache.blocked::no_targets               0                       # number of cycles access was blocked
system.cpu.icache.avg_blocked_cycles::no_mshrs    20.500000                       # average number of cycles each access was blocked
system.cpu.icache.avg_blocked_cycles::no_targets          nan                       # average number of cycles each access was blocked
system.cpu.icache.writebacks::.writebacks           20                       # number of writebacks
system.cpu.icache.writebacks::total                20                       # number of writebacks
system.cpu.icache.demand_mshr_hits::.cpu.inst          140                       # number of demand (read+write) MSHR hits
system.cpu.icache.demand_mshr_hits::total          140                       # number of demand (read+write) MSHR hits
system.cpu.icache.overall_mshr_hits::.cpu.inst          140                       # number of overall MSHR hits
system.cpu.icache.overall_mshr_hits::total          140                       # number of overall MSHR hits
system.cpu.icache.demand_mshr_misses::.cpu.inst          457                       # number of demand (read+write) MSHR misses
system.cpu.icache.demand_mshr_misses::total          457                       # number of demand (read+write) MSHR misses
system.cpu.icache.overall_mshr_misses::.cpu.inst          457                       # number of overall MSHR misses
system.cpu.icache.overall_mshr_misses::total          457                       # number of overall MSHR misses
system.cpu.icache.demand_mshr_miss_latency::.cpu.inst     36910500                       # number of demand (read+write) MSHR miss cycles
system.cpu.icache.demand_mshr_miss_latency::total     36910500                       # number of demand (read+write) MSHR miss cycles
system.cpu.icache.overall_mshr_miss_latency::.cpu.inst     36910500                       # number of overall MSHR miss cycles
system.cpu.icache.overall_mshr_miss_latency::total     36910500                       # number of overall MSHR miss cycles
system.cpu.icache.demand_mshr_miss_rate::.cpu.inst     0.000421                       # mshr miss rate for demand accesses
system.cpu.icache.demand_mshr_miss_rate::total     0.000421                       # mshr miss rate for demand accesses
system.cpu.icache.overall_mshr_miss_rate::.cpu.inst     0.000421                       # mshr miss rate for overall accesses
system.cpu.icache.overall_mshr_miss_rate::total     0.000421                       # mshr miss rate for overall accesses
system.cpu.icache.demand_avg_mshr_miss_latency::.cpu.inst 80766.958425                       # average overall mshr miss latency
system.cpu.icache.demand_avg_mshr_miss_latency::total 80766.958425                       # average overall mshr miss latency
system.cpu.icache.overall_avg_mshr_miss_latency::.cpu.inst 80766.958425                       # average overall mshr miss latency
system.cpu.icache.overall_avg_mshr_miss_latency::total 80766.958425                       # average overall mshr miss latency
system.cpu.icache.replacements                     20                       # number of replacements
system.cpu.icache.ReadReq_hits::.cpu.inst      1084394                       # number of ReadReq hits
system.cpu.icache.ReadReq_hits::total         1084394                       # number of ReadReq hits
system.cpu.icache.ReadReq_misses::.cpu.inst          597                       # number of ReadReq misses
system.cpu.icache.ReadReq_misses::total           597                       # number of ReadReq misses
system.cpu.icache.ReadReq_miss_latency::.cpu.inst     45498500                       # number of ReadReq miss cycles
system.cpu.icache.ReadReq_miss_latency::total     45498500                       # number of ReadReq miss cycles
system.cpu.icache.ReadReq_accesses::.cpu.inst      1084991                       # number of ReadReq accesses(hits+misses)
system.cpu.icache.ReadReq_accesses::total      1084991                       # number of ReadReq accesses(hits+misses)
system.cpu.icache.ReadReq_miss_rate::.cpu.inst     0.000550                       # miss rate for ReadReq accesses
system.cpu.icache.ReadReq_miss_rate::total     0.000550                       # miss rate for ReadReq accesses
system.cpu.icache.ReadReq_avg_miss_latency::.cpu.inst 76211.892797                       # average ReadReq miss latency
system.cpu.icache.ReadReq_avg_miss_latency::total 76211.892797                       # average ReadReq miss latency
system.cpu.icache.ReadReq_mshr_hits::.cpu.inst          140                       # number of ReadReq MSHR hits
system.cpu.icache.ReadReq_mshr_hits::total          140                       # number of ReadReq MSHR hits
system.cpu.icache.ReadReq_mshr_misses::.cpu.inst          457                       # number of ReadReq MSHR misses
system.cpu.icache.ReadReq_mshr_misses::total          457                       # number of ReadReq MSHR misses
system.cpu.icache.ReadReq_mshr_miss_latency::.cpu.inst     36910500                       # number of ReadReq MSHR miss cycles
system.cpu.icache.ReadReq_mshr_miss_latency::total     36910500                       # number of ReadReq MSHR miss cycles
system.cpu.icache.ReadReq_mshr_miss_rate::.cpu.inst     0.000421                       # mshr miss rate for ReadReq accesses
system.cpu.icache.ReadReq_mshr_miss_rate::total     0.000421                       # mshr miss rate for ReadReq accesses
system.cpu.icache.ReadReq_avg_mshr_miss_latency::.cpu.inst 80766.958425                       # average ReadReq mshr miss latency
system.cpu.icache.ReadReq_avg_mshr_miss_latency::total 80766.958425                       # average ReadReq mshr miss latency
system.cpu.icache.power_state.pwrStateResidencyTicks::UNDEFINED   1998381000                       # Cumulative time (in ticks) in various power states
system.cpu.icache.tags.tagsinuse           393.975241                       # Cycle average of tags in use
system.cpu.icache.tags.total_refs             1084851                       # Total number of references to valid blocks.
system.cpu.icache.tags.sampled_refs               457                       # Sample count of references to valid blocks.
system.cpu.icache.tags.avg_refs           2373.853392                       # Average number of references to valid blocks.
system.cpu.icache.tags.warmup_cycle             87500                       # Cycle when the warmup percentage was hit.
system.cpu.icache.tags.occ_blocks::.cpu.inst   393.975241                       # Average occupied blocks per requestor
system.cpu.icache.tags.occ_percent::.cpu.inst     0.384741                       # Average percentage of cache occupancy
system.cpu.icache.tags.occ_percent::total     0.384741                       # Average percentage of cache occupancy
system.cpu.icache.tags.occ_task_id_blocks::1024          437                       # Occupied blocks per task id
system.cpu.icache.tags.age_task_id_blocks_1024::0           42                       # Occupied blocks per task id
system.cpu.icache.tags.age_task_id_blocks_1024::2            1                       # Occupied blocks per task id
system.cpu.icache.tags.age_task_id_blocks_1024::3          394                       # Occupied blocks per task id
system.cpu.icache.tags.occ_task_id_percent::1024     0.426758                       # Percentage of cache occupancy per task id
system.cpu.icache.tags.tag_accesses           2170439                       # Number of tag accesses
system.cpu.icache.tags.data_accesses          2170439                       # Number of data accesses
system.cpu.icache.tags.power_state.pwrStateResidencyTicks::UNDEFINED   1998381000                       # Cumulative time (in ticks) in various power states
system.cpu.interrupts.clk_domain.clock           8000                       # Clock period in ticks
system.cpu.itb.rdAccesses                           0                       # TLB accesses on read requests
system.cpu.itb.wrAccesses                     1085140                       # TLB accesses on write requests
system.cpu.itb.rdMisses                             0                       # TLB misses on read requests
system.cpu.itb.wrMisses                           192                       # TLB misses on write requests
system.cpu.itb.walker.power_state.pwrStateResidencyTicks::UNDEFINED   1998381000                       # Cumulative time (in ticks) in various power states
system.cpu.itb_walker_cache.blocked_cycles::no_mshrs            0                       # number of cycles access was blocked
system.cpu.itb_walker_cache.blocked_cycles::no_targets            0                       # number of cycles access was blocked
system.cpu.itb_walker_cache.blocked::no_mshrs            0                       # number of cycles access was blocked
system.cpu.itb_walker_cache.blocked::no_targets            0                       # number of cycles access was blocked
system.cpu.itb_walker_cache.avg_blocked_cycles::no_mshrs          nan                       # average number of cycles each access was blocked
system.cpu.itb_walker_cache.avg_blocked_cycles::no_targets          nan                       # average number of cycles each access was blocked
system.cpu.itb_walker_cache.replacements            0                       # number of replacements
system.cpu.itb_walker_cache.power_state.pwrStateResidencyTicks::UNDEFINED   1998381000                       # Cumulative time (in ticks) in various power states
system.cpu.itb_walker_cache.tags.tagsinuse            0                       # Cycle average of tags in use
system.cpu.itb_walker_cache.tags.total_refs            0                       # Total number of references to valid blocks.
system.cpu.itb_walker_cache.tags.sampled_refs            0                       # Sample count of references to valid blocks.
system.cpu.itb_walker_cache.tags.avg_refs          nan                       # Average number of references to valid blocks.
system.cpu.itb_walker_cache.tags.warmup_cycle            0                       # Cycle when the warmup percentage was hit.
system.cpu.itb_walker_cache.tags.tag_accesses            0                       # Number of tag accesses
system.cpu.itb_walker_cache.tags.data_accesses            0                       # Number of data accesses
system.cpu.itb_walker_cache.tags.power_state.pwrStateResidencyTicks::UNDEFINED   1998381000                       # Cumulative time (in ticks) in various power states
system.cpu.lsq0.forwLoads                         205                       # Number of loads that had data forwarded from stores
system.cpu.lsq0.squashedLoads                    2621                       # Number of loads squashed
system.cpu.lsq0.ignoredResponses                    2                       # Number of memory responses ignored because the instruction is squashed
system.cpu.lsq0.memOrderViolation                   9                       # Number of memory ordering violations
system.cpu.lsq0.squashedStores                    932                       # Number of stores squashed
system.cpu.lsq0.rescheduledLoads                    0                       # Number of loads that were rescheduled
system.cpu.lsq0.blockedByCache                   1473                       # Number of times an access to memory failed due to the cache being blocked
system.cpu.power_state.pwrStateResidencyTicks::ON   1998381000                       # Cumulative time (in ticks) in various power states
system.cpu.rename.squashCycles                    899                       # Number of cycles rename is squashing
system.cpu.rename.idleCycles                  1604928                       # Number of cycles rename is idle
system.cpu.rename.blockCycles                   37556                       # Number of cycles rename is blocking
system.cpu.rename.serializeStallCycles             35                       # count of cycles rename stalledfor serializing inst
system.cpu.rename.runCycles                   2065568                       # Number of cycles rename is running
system.cpu.rename.unblockCycles                249999                       # Number of cycles rename is unblocking
system.cpu.rename.renamedInsts               14494603                       # Number of instructions processed by rename
system.cpu.rename.ROBFullEvents                 24113                       # Number of times rename has blocked due to ROB full
system.cpu.rename.IQFullEvents                 100854                       # Number of times rename has blocked due to IQ full
system.cpu.rename.LQFullEvents                 229423                       # Number of times rename has blocked due to LQ full
system.cpu.rename.SQFullEvents                   6526                       # Number of times rename has blocked due to SQ full
system.cpu.rename.renamedOperands            15810060                       # Number of destination operands rename has renamed
system.cpu.rename.lookups                    26337321                       # Number of register rename lookups that rename has made
system.cpu.rename.intLookups                  8115947                       # Number of integer rename lookups
system.cpu.rename.fpLookups                  13371192                       # Number of floating rename lookups
system.cpu.rename.committedMaps              15785244                       # Number of HB maps that are committed
system.cpu.rename.undoneMaps                    24802                       # Number of HB maps that are undone due to squashing
system.cpu.rename.serializing                       4                       # count of serializing insts renamed
system.cpu.rename.tempSerializing                   4                       # count of temporary serializing insts renamed
system.cpu.rename.skidInsts                     50496                       # count of insts added to the skid buffer
system.cpu.rob.reads                         17601674                       # The number of ROB reads
system.cpu.rob.writes                        28977665                       # The number of ROB writes
system.cpu.thread_0.numInsts                  8104173                       # Number of Instructions committed
system.cpu.thread_0.numOps                   14470629                       # Number of Ops committed
system.cpu.thread_0.numMemRefs                      0                       # Number of Memory References
system.cpu_clk_domain.clock                       500                       # Clock period in ticks
system.cpu_voltage_domain.voltage                   1                       # Voltage in Volts
system.l2.demand_hits::.cpu.inst                    3                       # number of demand (read+write) hits
system.l2.demand_hits::.cpu.data                22911                       # number of demand (read+write) hits
system.l2.demand_hits::total                    22914                       # number of demand (read+write) hits
system.l2.overall_hits::.cpu.inst                   3                       # number of overall hits
system.l2.overall_hits::.cpu.data               22911                       # number of overall hits
system.l2.overall_hits::total                   22914                       # number of overall hits
system.l2.demand_misses::.cpu.inst                454                       # number of demand (read+write) misses
system.l2.demand_misses::.cpu.data               3298                       # number of demand (read+write) misses
system.l2.demand_misses::total                   3752                       # number of demand (read+write) misses
system.l2.overall_misses::.cpu.inst               454                       # number of overall misses
system.l2.overall_misses::.cpu.data              3298                       # number of overall misses
system.l2.overall_misses::total                  3752                       # number of overall misses
system.l2.demand_miss_latency::.cpu.inst     36188000                       # number of demand (read+write) miss cycles
system.l2.demand_miss_latency::.cpu.data    252982500                       # number of demand (read+write) miss cycles
system.l2.demand_miss_latency::total        289170500                       # number of demand (read+write) miss cycles
system.l2.overall_miss_latency::.cpu.inst     36188000                       # number of overall miss cycles
system.l2.overall_miss_latency::.cpu.data    252982500                       # number of overall miss cycles
system.l2.overall_miss_latency::total       289170500                       # number of overall miss cycles
system.l2.demand_accesses::.cpu.inst              457                       # number of demand (read+write) accesses
system.l2.demand_accesses::.cpu.data            26209                       # number of demand (read+write) accesses
system.l2.demand_accesses::total                26666                       # number of demand (read+write) accesses
system.l2.overall_accesses::.cpu.inst             457                       # number of overall (read+write) accesses
system.l2.overall_accesses::.cpu.data           26209                       # number of overall (read+write) accesses
system.l2.overall_accesses::total               26666                       # number of overall (read+write) accesses
system.l2.demand_miss_rate::.cpu.inst        0.993435                       # miss rate for demand accesses
system.l2.demand_miss_rate::.cpu.data        0.125835                       # miss rate for demand accesses
system.l2.demand_miss_rate::total            0.140704                       # miss rate for demand accesses
system.l2.overall_miss_rate::.cpu.inst       0.993435                       # miss rate for overall accesses
system.l2.overall_miss_rate::.cpu.data       0.125835                       # miss rate for overall accesses
system.l2.overall_miss_rate::total           0.140704                       # miss rate for overall accesses
system.l2.demand_avg_miss_latency::.cpu.inst 79709.251101                       # average overall miss latency
system.l2.demand_avg_miss_latency::.cpu.data 76707.853244                       # average overall miss latency
system.l2.demand_avg_miss_latency::total 77071.028785                       # average overall miss latency
system.l2.overall_avg_miss_latency::.cpu.inst 79709.251101                       # average overall miss latency
system.l2.overall_avg_miss_latency::.cpu.data 76707.853244                       # average overall miss latency
system.l2.overall_avg_miss_latency::total 77071.028785                       # average overall miss latency
system.l2.blocked_cycles::no_mshrs                  0                       # number of cycles access was blocked
system.l2.blocked_cycles::no_targets                0                       # number of cycles access was blocked
[...]
system.mem_ctrls.dram.bw_total::.cpu.inst     14539770                       # Total bandwidth to/from this memory (bytes/s)
system.mem_ctrls.dram.bw_total::.cpu.data    105621501                       # Total bandwidth to/from this memory (bytes/s)
system.mem_ctrls.dram.bw_total::total       120161271                       # Total bandwidth to/from this memory (bytes/s)
system.mem_ctrls.dram.readBursts                 3752                       # Number of DRAM read bursts
system.mem_ctrls.dram.writeBursts                   0                       # Number of DRAM write bursts
system.mem_ctrls.dram.perBankRdBursts::0          222                       # Per bank write bursts
system.mem_ctrls.dram.perBankRdBursts::1          301                       # Per bank write bursts
system.mem_ctrls.dram.perBankRdBursts::2          264                       # Per bank write bursts
system.mem_ctrls.dram.perBankRdBursts::3          263                       # Per bank write bursts
system.mem_ctrls.dram.perBankRdBursts::4          263                       # Per bank write bursts
system.mem_ctrls.dram.perBankRdBursts::5          266                       # Per bank write bursts
system.mem_ctrls.dram.perBankRdBursts::6          331                       # Per bank write bursts
system.mem_ctrls.dram.perBankRdBursts::7          284                       # Per bank write bursts
system.mem_ctrls.dram.perBankRdBursts::8          281                       # Per bank write bursts
system.mem_ctrls.dram.perBankRdBursts::9          182                       # Per bank write bursts
system.mem_ctrls.dram.perBankRdBursts::10          146                       # Per bank write bursts
system.mem_ctrls.dram.perBankRdBursts::11          201                       # Per bank write bursts
system.mem_ctrls.dram.perBankRdBursts::12          184                       # Per bank write bursts
system.mem_ctrls.dram.perBankRdBursts::13          140                       # Per bank write bursts
system.mem_ctrls.dram.perBankRdBursts::14          187                       # Per bank write bursts
system.mem_ctrls.dram.perBankRdBursts::15          237                       # Per bank write bursts
system.mem_ctrls.dram.perBankWrBursts::0            0                       # Per bank write bursts
system.mem_ctrls.dram.perBankWrBursts::1            0                       # Per bank write bursts
system.mem_ctrls.dram.perBankWrBursts::2            0                       # Per bank write bursts
system.mem_ctrls.dram.perBankWrBursts::3            0                       # Per bank write bursts
system.mem_ctrls.dram.perBankWrBursts::4            0                       # Per bank write bursts
system.mem_ctrls.dram.perBankWrBursts::5            0                       # Per bank write bursts
system.mem_ctrls.dram.perBankWrBursts::6            0                       # Per bank write bursts
system.mem_ctrls.dram.perBankWrBursts::7            0                       # Per bank write bursts
system.mem_ctrls.dram.perBankWrBursts::8            0                       # Per bank write bursts
system.mem_ctrls.dram.perBankWrBursts::9            0                       # Per bank write bursts
system.mem_ctrls.dram.perBankWrBursts::10            0                       # Per bank write bursts
system.mem_ctrls.dram.perBankWrBursts::11            0                       # Per bank write bursts
system.mem_ctrls.dram.perBankWrBursts::12            0                       # Per bank write bursts
system.mem_ctrls.dram.perBankWrBursts::13            0                       # Per bank write bursts
system.mem_ctrls.dram.perBankWrBursts::14            0                       # Per bank write bursts
system.mem_ctrls.dram.perBankWrBursts::15            0                       # Per bank write bursts
system.mem_ctrls.dram.totQLat                27704750                       # Total ticks spent queuing
system.mem_ctrls.dram.totBusLat              18760000                       # Total ticks spent in databus transfers
system.mem_ctrls.dram.totMemAccLat           98054750                       # Total ticks spent from burst creation until serviced by the DRAM
system.mem_ctrls.dram.avgQLat                 7384.00                       # Average queueing delay per DRAM burst
system.mem_ctrls.dram.avgBusLat               5000.00                       # Average bus latency per DRAM burst
system.mem_ctrls.dram.avgMemAccLat           26134.00                       # Average memory access latency per DRAM burst
system.mem_ctrls.dram.readRowHits                3218                       # Number of row buffer hits during reads
system.mem_ctrls.dram.writeRowHits                  0                       # Number of row buffer hits during writes
system.mem_ctrls.dram.readRowHitRate            85.77                       # Row buffer hit rate for reads
system.mem_ctrls.dram.writeRowHitRate             nan                       # Row buffer hit rate for writes
system.mem_ctrls.dram.bytesPerActivate::samples          523                       # Bytes accessed per row activation
system.mem_ctrls.dram.bytesPerActivate::mean   454.485660                       # Bytes accessed per row activation
system.mem_ctrls.dram.bytesPerActivate::gmean   292.092016                       # Bytes accessed per row activation
system.mem_ctrls.dram.bytesPerActivate::stdev   361.231824                       # Bytes accessed per row activation
system.mem_ctrls.dram.bytesPerActivate::0-127          116     22.18%     22.18% # Bytes accessed per row activation
system.mem_ctrls.dram.bytesPerActivate::128-255           88     16.83%     39.01% # Bytes accessed per row activation
system.mem_ctrls.dram.bytesPerActivate::256-383           29      5.54%     44.55% # Bytes accessed per row activation
system.mem_ctrls.dram.bytesPerActivate::384-511           72     13.77%     58.32% # Bytes accessed per row activation
system.mem_ctrls.dram.bytesPerActivate::512-639           66     12.62%     70.94% # Bytes accessed per row activation
system.mem_ctrls.dram.bytesPerActivate::640-767           14      2.68%     73.61% # Bytes accessed per row activation
system.mem_ctrls.dram.bytesPerActivate::768-895           13      2.49%     76.10% # Bytes accessed per row activation
system.mem_ctrls.dram.bytesPerActivate::896-1023           25      4.78%     80.88% # Bytes accessed per row activation
system.mem_ctrls.dram.bytesPerActivate::1024-1151          100     19.12%    100.00% # Bytes accessed per row activation
system.mem_ctrls.dram.bytesPerActivate::total          523                       # Bytes accessed per row activation
system.mem_ctrls.dram.bytesRead                240128                       # Total number of bytes read from DRAM
system.mem_ctrls.dram.bytesWritten                  0                       # Total number of bytes written to DRAM
system.mem_ctrls.dram.avgRdBW              120.161271                       # Average DRAM read bandwidth in MiBytes/s
system.mem_ctrls.dram.avgWrBW                       0                       # Average DRAM write bandwidth in MiBytes/s
system.mem_ctrls.dram.peakBW                 12800.00                       # Theoretical peak bandwidth in MiByte/s
system.mem_ctrls.dram.busUtil                    0.94                       # Data bus utilization in percentage
system.mem_ctrls.dram.busUtilRead                0.94                       # Data bus utilization in percentage for reads
system.mem_ctrls.dram.busUtilWrite               0.00                       # Data bus utilization in percentage for writes
system.mem_ctrls.dram.pageHitRate               85.77                       # Row buffer hit rate, read and write combined
system.mem_ctrls.dram.power_state.pwrStateResidencyTicks::UNDEFINED   1998381000                       # Cumulative time (in ticks) in various power states
system.mem_ctrls.dram.rank0.actEnergy         2341920                       # Energy for activate commands per rank (pJ)
system.mem_ctrls.dram.rank0.preEnergy         1221990                       # Energy for precharge commands per rank (pJ)
system.mem_ctrls.dram.rank0.readEnergy       15665160                       # Energy for read commands per rank (pJ)
system.mem_ctrls.dram.rank0.writeEnergy             0                       # Energy for write commands per rank (pJ)
system.mem_ctrls.dram.rank0.refreshEnergy 157347840.000000                       # Energy for refresh commands per rank (pJ)
system.mem_ctrls.dram.rank0.actBackEnergy    306916500                       # Energy for active background per rank (pJ)
system.mem_ctrls.dram.rank0.preBackEnergy    508922400                       # Energy for precharge background per rank (pJ)
system.mem_ctrls.dram.rank0.actPowerDownEnergy            0                       # Energy for active power-down per rank (pJ)
system.mem_ctrls.dram.rank0.prePowerDownEnergy            0                       # Energy for precharge power-down per rank (pJ)
system.mem_ctrls.dram.rank0.selfRefreshEnergy            0                       # Energy for self refresh per rank (pJ)
system.mem_ctrls.dram.rank0.totalEnergy     992415810                       # Total energy per rank (pJ)
system.mem_ctrls.dram.rank0.averagePower   496.609911                       # Core power per rank (mW)
system.mem_ctrls.dram.rank0.totalIdleTime            0                       # Total Idle time Per DRAM Rank
system.mem_ctrls.dram.rank0.pwrStateTime::IDLE   1319883500                       # Time in different power states
system.mem_ctrls.dram.rank0.pwrStateTime::REF     66560000                       # Time in different power states
system.mem_ctrls.dram.rank0.pwrStateTime::SREF            0                       # Time in different power states
system.mem_ctrls.dram.rank0.pwrStateTime::PRE_PDN            0                       # Time in different power states
system.mem_ctrls.dram.rank0.pwrStateTime::ACT    611937500                       # Time in different power states
system.mem_ctrls.dram.rank0.pwrStateTime::ACT_PDN            0                       # Time in different power states
system.mem_ctrls.dram.rank1.actEnergy         1470840                       # Energy for activate commands per rank (pJ)
system.mem_ctrls.dram.rank1.preEnergy          762795                       # Energy for precharge commands per rank (pJ)
system.mem_ctrls.dram.rank1.readEnergy       11124120                       # Energy for read commands per rank (pJ)
system.mem_ctrls.dram.rank1.writeEnergy             0                       # Energy for write commands per rank (pJ)
system.mem_ctrls.dram.rank1.refreshEnergy 157347840.000000                       # Energy for refresh commands per rank (pJ)
system.mem_ctrls.dram.rank1.actBackEnergy    155580360                       # Energy for active background per rank (pJ)
system.mem_ctrls.dram.rank1.preBackEnergy    636363360                       # Energy for precharge background per rank (pJ)
system.mem_ctrls.dram.rank1.actPowerDownEnergy            0                       # Energy for active power-down per rank (pJ)
system.mem_ctrls.dram.rank1.prePowerDownEnergy            0                       # Energy for precharge power-down per rank (pJ)
system.mem_ctrls.dram.rank1.selfRefreshEnergy            0                       # Energy for self refresh per rank (pJ)
system.mem_ctrls.dram.rank1.totalEnergy     962649315                       # Total energy per rank (pJ)
system.mem_ctrls.dram.rank1.averagePower   481.714605                       # Core power per rank (mW)
system.mem_ctrls.dram.rank1.totalIdleTime            0                       # Total Idle time Per DRAM Rank
system.mem_ctrls.dram.rank1.pwrStateTime::IDLE   1652833000                       # Time in different power states
system.mem_ctrls.dram.rank1.pwrStateTime::REF     66560000                       # Time in different power states
system.mem_ctrls.dram.rank1.pwrStateTime::SREF            0                       # Time in different power states
system.mem_ctrls.dram.rank1.pwrStateTime::PRE_PDN            0                       # Time in different power states
system.mem_ctrls.dram.rank1.pwrStateTime::ACT    278988000                       # Time in different power states
system.mem_ctrls.dram.rank1.pwrStateTime::ACT_PDN            0                       # Time in different power states
system.mem_ctrls.power_state.pwrStateResidencyTicks::UNDEFINED   1998381000                       # Cumulative time (in ticks) in various power states
system.membus.trans_dist::ReadResp               3645                       # Transaction distribution
system.membus.trans_dist::ReadExReq               107                       # Transaction distribution
system.membus.trans_dist::ReadExResp              107                       # Transaction distribution
system.membus.trans_dist::ReadSharedReq          3645                       # Transaction distribution
system.membus.pkt_count_system.l2.mem_side_port::system.mem_ctrls.port         7504                       # Packet count per connected requestor and responder (bytes)
system.membus.pkt_count_system.l2.mem_side_port::total         7504                       # Packet count per connected requestor and responder (bytes)
system.membus.pkt_count::total                   7504                       # Packet count per connected requestor and responder (bytes)
system.membus.pkt_size_system.l2.mem_side_port::system.mem_ctrls.port       240128                       # Cumulative packet size per connected requestor and responder (bytes)
system.membus.pkt_size_system.l2.mem_side_port::total       240128                       # Cumulative packet size per connected requestor and responder (bytes)
system.membus.pkt_size::total                  240128                       # Cumulative packet size per connected requestor and responder (bytes)
system.membus.snoops                                0                       # Total snoops (count)
system.membus.snoopTraffic                          0                       # Total snoop traffic (bytes)
system.membus.snoop_fanout::samples              3752                       # Request fanout histogram
system.membus.snoop_fanout::mean                    0                       # Request fanout histogram
system.membus.snoop_fanout::stdev                   0                       # Request fanout histogram
system.membus.snoop_fanout::underflows              0      0.00%      0.00% # Request fanout histogram
system.membus.snoop_fanout::0                    3752    100.00%    100.00% # Request fanout histogram
system.membus.snoop_fanout::1                       0      0.00%    100.00% # Request fanout histogram
system.membus.snoop_fanout::overflows               0      0.00%    100.00% # Request fanout histogram
system.membus.snoop_fanout::min_value               0                       # Request fanout histogram
system.membus.snoop_fanout::max_value               0                       # Request fanout histogram
system.membus.snoop_fanout::total                3752                       # Request fanout histogram
system.membus.power_state.pwrStateResidencyTicks::UNDEFINED   1998381000                       # Cumulative time (in ticks) in various power states
system.membus.reqLayer2.occupancy             4179000                       # Layer occupancy (ticks)
system.membus.reqLayer2.utilization               0.2                       # Layer utilization (%)
system.membus.respLayer1.occupancy           19793750                       # Layer occupancy (ticks)
system.membus.respLayer1.utilization              1.0                       # Layer utilization (%)
system.tol2bus.trans_dist::ReadResp             26504                       # Transaction distribution
system.tol2bus.trans_dist::WritebackDirty        15110                       # Transaction distribution
system.tol2bus.trans_dist::WritebackClean           20                       # Transaction distribution
system.tol2bus.trans_dist::CleanEvict           10075                       # Transaction distribution
system.tol2bus.trans_dist::ReadExReq              162                       # Transaction distribution
system.tol2bus.trans_dist::ReadExResp             162                       # Transaction distribution
system.tol2bus.trans_dist::ReadCleanReq           457                       # Transaction distribution
system.tol2bus.trans_dist::ReadSharedReq        26047                       # Transaction distribution
system.tol2bus.pkt_count_system.cpu.icache.mem_side_port::system.l2.cpu_side_port          934                       # Packet count per connected requestor and responder (bytes)
system.tol2bus.pkt_count_system.cpu.dcache.mem_side_port::system.l2.cpu_side_port        77603                       # Packet count per connected requestor and responder (bytes)
system.tol2bus.pkt_count::total                 78537                       # Packet count per connected requestor and responder (bytes)
system.tol2bus.pkt_size_system.cpu.icache.mem_side_port::system.l2.cpu_side_port        30528                       # Cumulative packet size per connected requestor and responder (bytes)
system.tol2bus.pkt_size_system.cpu.dcache.mem_side_port::system.l2.cpu_side_port      2644416                       # Cumulative packet size per connected requestor and responder (bytes)
system.tol2bus.pkt_size::total                2674944                       # Cumulative packet size per connected requestor and responder (bytes)
system.tol2bus.snoops                               0                       # Total snoops (count)
system.tol2bus.snoopTraffic                         0                       # Total snoop traffic (bytes)
system.tol2bus.snoop_fanout::samples            26666                       # Request fanout histogram
system.tol2bus.snoop_fanout::mean                   0                       # Request fanout histogram
system.tol2bus.snoop_fanout::stdev                  0                       # Request fanout histogram
system.tol2bus.snoop_fanout::underflows             0      0.00%      0.00% # Request fanout histogram
system.tol2bus.snoop_fanout::0                  26666    100.00%    100.00% # Request fanout histogram
system.tol2bus.snoop_fanout::1                      0      0.00%    100.00% # Request fanout histogram
system.tol2bus.snoop_fanout::2                      0      0.00%    100.00% # Request fanout histogram
system.tol2bus.snoop_fanout::3                      0      0.00%    100.00% # Request fanout histogram
system.tol2bus.snoop_fanout::4                      0      0.00%    100.00% # Request fanout histogram
system.tol2bus.snoop_fanout::overflows              0      0.00%    100.00% # Request fanout histogram
system.tol2bus.snoop_fanout::min_value              0                       # Request fanout histogram
system.tol2bus.snoop_fanout::max_value              0                       # Request fanout histogram
system.tol2bus.snoop_fanout::total              26666                       # Request fanout histogram
system.tol2bus.power_state.pwrStateResidencyTicks::UNDEFINED   1998381000                       # Cumulative time (in ticks) in various power states
system.tol2bus.reqLayer0.occupancy           41065500                       # Layer occupancy (ticks)
system.tol2bus.reqLayer0.utilization              2.1                       # Layer utilization (%)
system.tol2bus.respLayer0.occupancy            685500                       # Layer occupancy (ticks)
system.tol2bus.respLayer0.utilization             0.0                       # Layer utilization (%)
system.tol2bus.respLayer1.occupancy          39313500                       # Layer occupancy (ticks)
system.tol2bus.respLayer1.utilization             2.0                       # Layer utilization (%)
system.voltage_domain.voltage                       1                       # Voltage in Volts

---------- End Simulation Statistics   ----------
