
---------- Begin Simulation Statistics ----------
final_tick                                 2018040600                       # Number of ticks from beginning of simulation (restored from checkpoints and never reset)
host_inst_rate                                 250491                       # Simulator instruction rate (inst/s)
host_mem_usage                                 654840                       # Number of bytes of host memory used
host_op_rate                                   447270                       # Simulator op (including micro ops) rate (op/s)
host_seconds                                    32.35                       # Real time elapsed on the host
host_tick_rate                               62375217                       # Simulator tick rate (ticks/s)
sim_freq                                 1000000000000                       # Frequency of simulated ticks
sim_insts                                     8104173                       # Number of instructions simulated
sim_ops                                      14470629                       # Number of ops (including micro ops) simulated
sim_seconds                                  0.002018                       # Number of seconds simulated
sim_ticks                                  2018040600                       # Number of ticks simulated
system.cpu.cc_regfile_reads                   1486333                       # number of cc regfile reads
system.cpu.cc_regfile_writes                  1779141                       # number of cc regfile writes
system.cpu.committedInsts                     8104173                       # Number of Instructions Simulated
system.cpu.committedOps                      14470629                       # Number of Ops (including micro ops) Simulated
system.cpu.cpi                               0.493094                       # CPI: Cycles Per Instruction
system.cpu.cpi_total                         0.493094                       # CPI: Total CPI of All Threads
system.cpu.fp_regfile_reads                  13370854                       # number of floating regfile reads
system.cpu.fp_regfile_writes                 11863808                       # number of floating regfile writes
system.cpu.idleCycles                           37953                       # Total number of cycles that the CPU has spent unscheduled due to idling
system.cpu.iew.branchMispredicts                  982                       # Number of branch mispredicts detected at execute
system.cpu.iew.exec_branches                   297487                       # Number of branches executed
system.cpu.iew.exec_nop                             0                       # number of nop insts executed
system.cpu.iew.exec_rate                     3.627298                       # Inst execution rate
system.cpu.iew.exec_refs                      2771419                       # number of memory reference insts executed
system.cpu.iew.exec_stores                     133180                       # Number of stores executed
system.cpu.iew.exec_swp                             0                       # number of swp insts executed
system.cpu.iew.iewBlockCycles                    8654                       # Number of cycles IEW is blocking
system.cpu.iew.iewDispLoadInsts               2625547                       # Number of dispatched load instructions
system.cpu.iew.iewDispNonSpecInsts                  2                       # Number of dispatched non-speculative instructions
system.cpu.iew.iewDispSquashedInsts                88                       # Number of squashed instructions skipped by dispatch
system.cpu.iew.iewDispStoreInsts               133609                       # Number of dispatched store instructions
system.cpu.iew.iewDispatchedInsts            14487726                       # Number of instructions dispatched to IQ
system.cpu.iew.iewExecLoadInsts               2638239                       # Number of load instructions executed
system.cpu.iew.iewExecSquashedInsts              2586                       # Number of squashed instructions skipped in execute
system.cpu.iew.iewExecutedInsts              14495123                       # Number of executed instructions
system.cpu.iew.iewIQFullEvents                   1032                       # Number of times the IQ has become full, causing a stall
system.cpu.iew.iewIdleCycles                        0                       # Number of cycles IEW is idle
system.cpu.iew.iewLSQFullEvents                  1444                       # Number of times the LSQ has become full, causing a stall
system.cpu.iew.iewSquashCycles                    899                       # Number of cycles IEW is squashing
system.cpu.iew.iewUnblockCycles                  2570                       # Number of cycles IEW is unblocking
system.cpu.iew.memOrderViolationEvents              9                       # Number of memory order violations
system.cpu.iew.predictedNotTakenIncorrect          654                       # Number of branches that were predicted not taken incorrectly
system.cpu.iew.predictedTakenIncorrect            328                       # Number of branches that were predicted taken incorrectly
system.cpu.iew.wb_consumers                  10301210                       # num instructions consuming a value
system.cpu.iew.wb_count                      14480209                       # cumulative count of insts written-back
system.cpu.iew.wb_fanout                     0.675958                       # average fanout of values written-back
system.cpu.iew.wb_producers                   6963190                       # num instructions producing a value
system.cpu.iew.wb_rate                       3.623566                       # insts written-back per cycle
system.cpu.iew.wb_sent                       14480620                       # cumulative count of insts sent to commit
system.cpu.int_regfile_reads                  8128048                       # number of integer regfile reads
system.cpu.int_regfile_writes                 2152429                       # number of integer regfile writes
system.cpu.ipc                               2.028010                       # IPC: Instructions Per Cycle
system.cpu.ipc_total                         2.028010                       # IPC: Total IPC of All Threads
system.cpu.iq.FU_type_0::No_OpClass              1000      0.01%      0.01% # Type of FU issued
system.cpu.iq.FU_type_0::IntAlu               2546691     17.57%     17.57% # Type of FU issued
system.cpu.iq.FU_type_0::IntMult                    5      0.00%     17.57% # Type of FU issued
system.cpu.iq.FU_type_0::IntDiv                    21      0.00%     17.57% # Type of FU issued
system.cpu.iq.FU_type_0::FloatAdd             4720919     32.56%     50.14% # Type of FU issued
system.cpu.iq.FU_type_0::FloatCmp                   0      0.00%     50.14% # Type of FU issued
system.cpu.iq.FU_type_0::FloatCvt                   0      0.00%     50.14% # Type of FU issued
system.cpu.iq.FU_type_0::FloatMult                  0      0.00%     50.14% # Type of FU issued
system.cpu.iq.FU_type_0::FloatMultAcc               0      0.00%     50.14% # Type of FU issued
system.cpu.iq.FU_type_0::FloatDiv                   0      0.00%     50.14% # Type of FU issued
system.cpu.iq.FU_type_0::FloatMisc                  0      0.00%     50.14% # Type of FU issued
system.cpu.iq.FU_type_0::FloatSqrt                  0      0.00%     50.14% # Type of FU issued
system.cpu.iq.FU_type_0::SimdAdd                    0      0.00%     50.14% # Type of FU issued
system.cpu.iq.FU_type_0::SimdAddAcc                 0      0.00%     50.14% # Type of FU issued
system.cpu.iq.FU_type_0::SimdAlu                  157      0.00%     50.14% # Type of FU issued
system.cpu.iq.FU_type_0::SimdCmp                    0      0.00%     50.14% # Type of FU issued
system.cpu.iq.FU_type_0::SimdCvt                   46      0.00%     50.14% # Type of FU issued
system.cpu.iq.FU_type_0::SimdMisc              262366      1.81%     51.95% # Type of FU issued
system.cpu.iq.FU_type_0::SimdMult                   0      0.00%     51.95% # Type of FU issued
system.cpu.iq.FU_type_0::SimdMultAcc                0      0.00%     51.95% # Type of FU issued
system.cpu.iq.FU_type_0::SimdShift                  0      0.00%     51.95% # Type of FU issued
system.cpu.iq.FU_type_0::SimdShiftAcc               0      0.00%     51.95% # Type of FU issued
system.cpu.iq.FU_type_0::SimdDiv                    0      0.00%     51.95% # Type of FU issued
system.cpu.iq.FU_type_0::SimdSqrt                   0      0.00%     51.95% # Type of FU issued
system.cpu.iq.FU_type_0::SimdFloatAdd         2097152     14.47%     66.41% # Type of FU issued
system.cpu.iq.FU_type_0::SimdFloatAlu               0      0.00%     66.41% # Type of FU issued
system.cpu.iq.FU_type_0::SimdFloatCmp               0      0.00%     66.41% # Type of FU issued
system.cpu.iq.FU_type_0::SimdFloatCvt               1      0.00%     66.41% # Type of FU issued
system.cpu.iq.FU_type_0::SimdFloatDiv               0      0.00%     66.41% # Type of FU issued
system.cpu.iq.FU_type_0::SimdFloatMisc              0      0.00%     66.41% # Type of FU issued
system.cpu.iq.FU_type_0::SimdFloatMult        2097152     14.47%     80.88% # Type of FU issued
system.cpu.iq.FU_type_0::SimdFloatMultAcc            0      0.00%     80.88% # Type of FU issued
system.cpu.iq.FU_type_0::SimdFloatSqrt              0      0.00%     80.88% # Type of FU issued
system.cpu.iq.FU_type_0::SimdReduceAdd              0      0.00%     80.88% # Type of FU issued
system.cpu.iq.FU_type_0::SimdReduceAlu              0      0.00%     80.88% # Type of FU issued
system.cpu.iq.FU_type_0::SimdReduceCmp              0      0.00%     80.88% # Type of FU issued
system.cpu.iq.FU_type_0::SimdFloatReduceAdd            0      0.00%     80.88% # Type of FU issued
system.cpu.iq.FU_type_0::SimdFloatReduceCmp            0      0.00%     80.88% # Type of FU issued
system.cpu.iq.FU_type_0::SimdAes                    0      0.00%     80.88% # Type of FU issued
system.cpu.iq.FU_type_0::SimdAesMix                 0      0.00%     80.88% # Type of FU issued
system.cpu.iq.FU_type_0::SimdSha1Hash               0      0.00%     80.88% # Type of FU issued
system.cpu.iq.FU_type_0::SimdSha1Hash2              0      0.00%     80.88% # Type of FU issued
system.cpu.iq.FU_type_0::SimdSha256Hash             0      0.00%     80.88% # Type of FU issued
system.cpu.iq.FU_type_0::SimdSha256Hash2            0      0.00%     80.88% # Type of FU issued
system.cpu.iq.FU_type_0::SimdShaSigma2              0      0.00%     80.88% # Type of FU issued
system.cpu.iq.FU_type_0::SimdShaSigma3              0      0.00%     80.88% # Type of FU issued
system.cpu.iq.FU_type_0::SimdPredAlu                0      0.00%     80.88% # Type of FU issued
system.cpu.iq.FU_type_0::MemRead                 2719      0.02%     80.90% # Type of FU issued
system.cpu.iq.FU_type_0::MemWrite                1656      0.01%     80.91% # Type of FU issued
system.cpu.iq.FU_type_0::FloatMemRead         2636230     18.18%     99.09% # Type of FU issued
system.cpu.iq.FU_type_0::FloatMemWrite         131600      0.91%    100.00% # Type of FU issued
system.cpu.iq.FU_type_0::IprAccess                  0      0.00%    100.00% # Type of FU issued
system.cpu.iq.FU_type_0::InstPrefetch               0      0.00%    100.00% # Type of FU issued
system.cpu.iq.FU_type_0::total               14497715                       # Type of FU issued
system.cpu.iq.fp_alu_accesses                12314706                       # Number of floating point alu accesses
system.cpu.iq.fp_inst_queue_reads            24326550                       # Number of floating instruction queue reads
system.cpu.iq.fp_inst_queue_wakeup_accesses     11995443                       # Number of floating instruction queue wakeup accesses
system.cpu.iq.fp_inst_queue_writes           12002455                       # Number of floating instruction queue writes
system.cpu.iq.fu_busy_cnt                      303664                       # FU busy when requested
system.cpu.iq.fu_busy_rate                   0.020946                       # FU busy rate (busy events/executed inst)
system.cpu.iq.fu_full::No_OpClass                   0      0.00%      0.00% # attempts to use FU when none available
system.cpu.iq.fu_full::IntAlu                     210      0.07%      0.07% # attempts to use FU when none available
system.cpu.iq.fu_full::IntMult                      0      0.00%      0.07% # attempts to use FU when none available
system.cpu.iq.fu_full::IntDiv                       0      0.00%      0.07% # attempts to use FU when none available
system.cpu.iq.fu_full::FloatAdd                 82026     27.01%     27.08% # attempts to use FU when none available
system.cpu.iq.fu_full::FloatCmp                     0      0.00%     27.08% # attempts to use FU when none available
system.cpu.iq.fu_full::FloatCvt                     0      0.00%     27.08% # attempts to use FU when none available
system.cpu.iq.fu_full::FloatMult                    0      0.00%     27.08% # attempts to use FU when none available
system.cpu.iq.fu_full::FloatMultAcc                 0      0.00%     27.08% # attempts to use FU when none available
system.cpu.iq.fu_full::FloatDiv                     0      0.00%     27.08% # attempts to use FU when none available
system.cpu.iq.fu_full::FloatMisc                    0      0.00%     27.08% # attempts to use FU when none available
system.cpu.iq.fu_full::FloatSqrt                    0      0.00%     27.08% # attempts to use FU when none available
system.cpu.iq.fu_full::SimdAdd                      0      0.00%     27.08% # attempts to use FU when none available
system.cpu.iq.fu_full::SimdAddAcc                   0      0.00%     27.08% # attempts to use FU when none available
system.cpu.iq.fu_full::SimdAlu                     10      0.00%     27.08% # attempts to use FU when none available
system.cpu.iq.fu_full::SimdCmp                      0      0.00%     27.08% # attempts to use FU when none available
system.cpu.iq.fu_full::SimdCvt                      1      0.00%     27.08% # attempts to use FU when none available
system.cpu.iq.fu_full::SimdMisc                 33337     10.98%     38.06% # attempts to use FU when none available
system.cpu.iq.fu_full::SimdMult                     0      0.00%     38.06% # attempts to use FU when none available
system.cpu.iq.fu_full::SimdMultAcc                  0      0.00%     38.06% # attempts to use FU when none available
system.cpu.iq.fu_full::SimdShift                    0      0.00%     38.06% # attempts to use FU when none available
system.cpu.iq.fu_full::SimdShiftAcc                 0      0.00%     38.06% # attempts to use FU when none available
system.cpu.iq.fu_full::SimdDiv                      0      0.00%     38.06% # attempts to use FU when none available
system.cpu.iq.fu_full::SimdSqrt                     0      0.00%     38.06% # attempts to use FU when none available
system.cpu.iq.fu_full::SimdFloatAdd             75390     24.83%     62.89% # attempts to use FU when none available
system.cpu.iq.fu_full::SimdFloatAlu                 0      0.00%     62.89% # attempts to use FU when none available
system.cpu.iq.fu_full::SimdFloatCmp                 0      0.00%     62.89% # attempts to use FU when none available
system.cpu.iq.fu_full::SimdFloatCvt                 0      0.00%     62.89% # attempts to use FU when none available
system.cpu.iq.fu_full::SimdFloatDiv                 0      0.00%     62.89% # attempts to use FU when none available
system.cpu.iq.fu_full::SimdFloatMisc                0      0.00%     62.89% # attempts to use FU when none available
system.cpu.iq.fu_full::SimdFloatMult           110069     36.25%     99.14% # attempts to use FU when none available
system.cpu.iq.fu_full::SimdFloatMultAcc             0      0.00%     99.14% # attempts to use FU when none available
system.cpu.iq.fu_full::SimdFloatSqrt                0      0.00%     99.14% # attempts to use FU when none available
system.cpu.iq.fu_full::SimdReduceAdd                0      0.00%     99.14% # attempts to use FU when none available
system.cpu.iq.fu_full::SimdReduceAlu                0      0.00%     99.14% # attempts to use FU when none available
system.cpu.iq.fu_full::SimdReduceCmp                0      0.00%     99.14% # attempts to use FU when none available
system.cpu.iq.fu_full::SimdFloatReduceAdd            0      0.00%     99.14% # attempts to use FU when none available
system.cpu.iq.fu_full::SimdFloatReduceCmp            0      0.00%     99.14% # attempts to use FU when none available
system.cpu.iq.fu_full::SimdAes                      0      0.00%     99.14% # attempts to use FU when none available
system.cpu.iq.fu_full::SimdAesMix                   0      0.00%     99.14% # attempts to use FU when none available
system.cpu.iq.fu_full::SimdSha1Hash                 0      0.00%     99.14% # attempts to use FU when none available
system.cpu.iq.fu_full::SimdSha1Hash2                0      0.00%     99.14% # attempts to use FU when none available
system.cpu.iq.fu_full::SimdSha256Hash               0      0.00%     99.14% # attempts to use FU when none available
system.cpu.iq.fu_full::SimdSha256Hash2              0      0.00%     99.14% # attempts to use FU when none available
system.cpu.iq.fu_full::SimdShaSigma2                0      0.00%     99.14% # attempts to use FU when none available
system.cpu.iq.fu_full::SimdShaSigma3                0      0.00%     99.14% # attempts to use FU when none available
system.cpu.iq.fu_full::SimdPredAlu                  0      0.00%     99.14% # attempts to use FU when none available
system.cpu.iq.fu_full::MemRead                     30      0.01%     99.15% # attempts to use FU when none available
system.cpu.iq.fu_full::MemWrite                    18      0.01%     99.15% # attempts to use FU when none available
system.cpu.iq.fu_full::FloatMemRead              2566      0.85%    100.00% # attempts to use FU when none available
system.cpu.iq.fu_full::FloatMemWrite                7      0.00%    100.00% # attempts to use FU when none available
system.cpu.iq.fu_full::IprAccess                    0      0.00%    100.00% # attempts to use FU when none available
system.cpu.iq.fu_full::InstPrefetch                 0      0.00%    100.00% # attempts to use FU when none available
system.cpu.iq.int_alu_accesses                2485673                       # Number of integer alu accesses
system.cpu.iq.int_inst_queue_reads            8931284                       # Number of integer instruction queue reads
system.cpu.iq.int_inst_queue_wakeup_accesses      2484766                       # Number of integer instruction queue wakeup accesses
system.cpu.iq.int_inst_queue_writes           2502362                       # Number of integer instruction queue writes
system.cpu.iq.iqInstsAdded                   14487724                       # Number of instructions added to the IQ (excludes non-spec)
system.cpu.iq.iqInstsIssued                  14497715                       # Number of instructions issued
system.cpu.iq.iqNonSpecInstsAdded                   2                       # Number of non-speculative instructions added to the IQ
system.cpu.iq.iqSquashedInstsExamined           17083                       # Number of squashed instructions iterated over during squash; mainly for profiling
system.cpu.iq.iqSquashedInstsIssued               578                       # Number of squashed instructions issued
system.cpu.iq.iqSquashedNonSpecRemoved              2                       # Number of squashed non-spec instructions that were removed
system.cpu.iq.iqSquashedOperandsExamined        18010                       # Number of squashed operands that are examined and possibly removed from graph
system.cpu.iq.issued_per_cycle::samples       3958168                       # Number of insts issued each cycle
system.cpu.iq.issued_per_cycle::mean         3.662734                       # Number of insts issued each cycle
system.cpu.iq.issued_per_cycle::stdev        2.734750                       # Number of insts issued each cycle
system.cpu.iq.issued_per_cycle::underflows            0      0.00%      0.00% # Number of insts issued each cycle
system.cpu.iq.issued_per_cycle::0              393531      9.94%      9.94% # Number of insts issued each cycle
system.cpu.iq.issued_per_cycle::1             1088644     27.50%     37.45% # Number of insts issued each cycle
system.cpu.iq.issued_per_cycle::2              300760      7.60%     45.04% # Number of insts issued each cycle
system.cpu.iq.issued_per_cycle::3              197117      4.98%     50.02% # Number of insts issued each cycle
system.cpu.iq.issued_per_cycle::4              288802      7.30%     57.32% # Number of insts issued each cycle
system.cpu.iq.issued_per_cycle::5              264239      6.68%     64.00% # Number of insts issued each cycle
system.cpu.iq.issued_per_cycle::6              559264     14.13%     78.13% # Number of insts issued each cycle
system.cpu.iq.issued_per_cycle::7              542275     13.70%     91.83% # Number of insts issued each cycle
system.cpu.iq.issued_per_cycle::8              323536      8.17%    100.00% # Number of insts issued each cycle
system.cpu.iq.issued_per_cycle::overflows            0      0.00%    100.00% # Number of insts issued each cycle
system.cpu.iq.issued_per_cycle::min_value            0                       # Number of insts issued each cycle
system.cpu.iq.issued_per_cycle::max_value            8                       # Number of insts issued each cycle
system.cpu.iq.issued_per_cycle::total         3958168                       # Number of insts issued each cycle
system.cpu.iq.rate                           3.627947                       # Inst issue rate
system.cpu.iq.vec_alu_accesses                      0                       # Number of vector alu accesses
system.cpu.iq.vec_inst_queue_reads                  0                       # Number of vector instruction queue reads
system.cpu.iq.vec_inst_queue_wakeup_accesses            0                       # Number of vector instruction queue wakeup accesses
system.cpu.iq.vec_inst_queue_writes                 0                       # Number of vector instruction queue writes
system.cpu.memDep0.conflictingLoads                27                       # Number of conflicting loads.
system.cpu.memDep0.conflictingStores               13                       # Number of conflicting stores.
system.cpu.memDep0.insertedLoads              2625547                       # Number of loads inserted to the mem dependence unit.
system.cpu.memDep0.insertedStores              133609                       # Number of stores inserted to the mem dependence unit.
system.cpu.misc_regfile_reads                 3367427                       # number of misc regfile reads
system.cpu.numCycles                          3996121                       # number of cpu cycles simulated
system.cpu.numWorkItemsCompleted                    0                       # number of work items this cpu completed
system.cpu.numWorkItemsStarted                      0                       # number of work items this cpu started
system.cpu.timesIdled                             322                       # Number of times that the entire CPU went into an idle state and unscheduled itself
system.cpu.workload.numSyscalls                    10                       # Number of system calls
system.membus.snoop_filter.hit_multi_requests            0                       # Number of requests hitting in the snoop filter with multiple (>1) holders of the requested data.
system.membus.snoop_filter.hit_multi_snoops            0                       # Number of snoops hitting in the snoop filter with multiple (>1) holders of the requested data.
system.membus.snoop_filter.hit_single_requests           15                       # Number of requests hitting in the snoop filter with a single holder of the requested data.
system.membus.snoop_filter.hit_single_snoops            0                       # Number of snoops hitting in the snoop filter with a single holder of the requested data.
system.membus.snoop_filter.tot_requests          3769                       # Total number of requests made to the snoop filter.
system.membus.snoop_filter.tot_snoops               0                       # Total number of snoops made to the snoop filter.
system.tol2bus.snoop_filter.hit_multi_requests            0                       # Number of requests hitting in the snoop filter with multiple (>1) holders of the requested data.
system.tol2bus.snoop_filter.hit_multi_snoops            0                       # Number of snoops hitting in the snoop filter with multiple (>1) holders of the requested data.
system.tol2bus.snoop_filter.hit_single_requests        47176                       # Number of requests hitting in the snoop filter with a single holder of the requested data.
system.tol2bus.snoop_filter.hit_single_snoops          340                       # Number of snoops hitting in the snoop filter with a single holder of the requested data.
system.tol2bus.snoop_filter.tot_requests        95813                       # Total number of requests made to the snoop filter.
system.tol2bus.snoop_filter.tot_snoops            340                       # Total number of snoops made to the snoop filter.
system.clk_domain.clock                          1000                       # Clock period in ticks
system.cpu.branchPred.lookups                  299122                       # Number of BP lookups
system.cpu.branchPred.condPredicted            297950                       # Number of conditional branches predicted
system.cpu.branchPred.condIncorrect               957                       # Number of conditional branches incorrect
system.cpu.branchPred.BTBLookups               264266                       # Number of BTB lookups
system.cpu.branchPred.BTBHits                  263522                       # Number of BTB hits
system.cpu.branchPred.BTBHitPct             99.718465                       # BTB Hit Percentage
system.cpu.branchPred.RASUsed                     282                       # Number of times the RAS was used to get a target.
system.cpu.branchPred.RASIncorrect                  0                       # Number of incorrect RAS predictions.
system.cpu.branchPred.indirectLookups             294                       # Number of indirect predictor lookups.
system.cpu.branchPred.indirectHits                 18                       # Number of indirect target hits.
system.cpu.branchPred.indirectMisses              276                       # Number of indirect misses.
system.cpu.branchPred.indirectMispredicted           90                       # Number of mispredicted indirect branches.
system.cpu.commit.commitSquashedInsts           16975                       # The number of squashed insts skipped by commit
system.cpu.commit.branchMispredicts               879                       # The number of times a branch was mispredicted
system.cpu.commit.numCommittedDist::samples      3955608                       # Number of insts commited each cycle
system.cpu.commit.numCommittedDist::mean     3.658257                       # Number of insts commited each cycle
system.cpu.commit.numCommittedDist::stdev     3.268205                       # Number of insts commited each cycle
system.cpu.commit.numCommittedDist::underflows            0      0.00%      0.00% # Number of insts commited each cycle
system.cpu.commit.numCommittedDist::0         1194340     30.19%     30.19% # Number of insts commited each cycle
system.cpu.commit.numCommittedDist::1          416758     10.54%     40.73% # Number of insts commited each cycle
system.cpu.commit.numCommittedDist::2          252523      6.38%     47.11% # Number of insts commited each cycle
system.cpu.commit.numCommittedDist::3           35191      0.89%     48.00% # Number of insts commited each cycle
system.cpu.commit.numCommittedDist::4          286150      7.23%     55.24% # Number of insts commited each cycle
system.cpu.commit.numCommittedDist::5          569847     14.41%     69.64% # Number of insts commited each cycle
system.cpu.commit.numCommittedDist::6           61554      1.56%     71.20% # Number of insts commited each cycle
system.cpu.commit.numCommittedDist::7           33867      0.86%     72.06% # Number of insts commited each cycle
system.cpu.commit.numCommittedDist::8         1105378     27.94%    100.00% # Number of insts commited each cycle
system.cpu.commit.numCommittedDist::overflows            0      0.00%    100.00% # Number of insts commited each cycle
system.cpu.commit.numCommittedDist::min_value            0                       # Number of insts commited each cycle
system.cpu.commit.numCommittedDist::max_value            8                       # Number of insts commited each cycle
system.cpu.commit.numCommittedDist::total      3955608                       # Number of insts commited each cycle
system.cpu.commit.instsCommitted              8104173                       # Number of instructions committed
system.cpu.commit.opsCommitted               14470629                       # Number of ops (including micro ops) committed
system.cpu.commit.memRefs                     2755586                       # Number of memory references committed
system.cpu.commit.loads                       2622923                       # Number of loads committed
system.cpu.commit.amos                              0                       # Number of atomic instructions committed
system.cpu.commit.membars                           0                       # Number of memory barriers committed
system.cpu.commit.branches                     296838                       # Number of branches committed
system.cpu.commit.vector                            0                       # Number of committed Vector instructions.
system.cpu.commit.floating                   11994221                       # Number of committed floating point instructions.
system.cpu.commit.integer                     5196288                       # Number of committed integer instructions.
system.cpu.commit.functionCalls                   144                       # Number of function calls committed.
system.cpu.commit.committedInstType_0::No_OpClass          536      0.00%      0.00% # Class of committed instruction
system.cpu.commit.committedInstType_0::IntAlu      2538951     17.55%     17.55% # Class of committed instruction
system.cpu.commit.committedInstType_0::IntMult            5      0.00%     17.55% # Class of committed instruction
system.cpu.commit.committedInstType_0::IntDiv           21      0.00%     17.55% # Class of committed instruction
system.cpu.commit.committedInstType_0::FloatAdd      4718727     32.61%     50.16% # Class of committed instruction
system.cpu.commit.committedInstType_0::FloatCmp            0      0.00%     50.16% # Class of committed instruction
system.cpu.commit.committedInstType_0::FloatCvt            0      0.00%     50.16% # Class of committed instruction
system.cpu.commit.committedInstType_0::FloatMult            0      0.00%     50.16% # Class of committed instruction
system.cpu.commit.committedInstType_0::FloatMultAcc            0      0.00%     50.16% # Class of committed instruction
system.cpu.commit.committedInstType_0::FloatDiv            0      0.00%     50.16% # Class of committed instruction
system.cpu.commit.committedInstType_0::FloatMisc            0      0.00%     50.16% # Class of committed instruction
system.cpu.commit.committedInstType_0::FloatSqrt            0      0.00%     50.16% # Class of committed instruction
system.cpu.commit.committedInstType_0::SimdAdd            0      0.00%     50.16% # Class of committed instruction
system.cpu.commit.committedInstType_0::SimdAddAcc            0      0.00%     50.16% # Class of committed instruction
system.cpu.commit.committedInstType_0::SimdAlu           94      0.00%     50.16% # Class of committed instruction
system.cpu.commit.committedInstType_0::SimdCmp            0      0.00%     50.16% # Class of committed instruction
system.cpu.commit.committedInstType_0::SimdCvt           46      0.00%     50.16% # Class of committed instruction
system.cpu.commit.committedInstType_0::SimdMisc       262359      1.81%     51.97% # Class of committed instruction
system.cpu.commit.committedInstType_0::SimdMult            0      0.00%     51.97% # Class of committed instruction
system.cpu.commit.committedInstType_0::SimdMultAcc            0      0.00%     51.97% # Class of committed instruction
system.cpu.commit.committedInstType_0::SimdShift            0      0.00%     51.97% # Class of committed instruction
system.cpu.commit.committedInstType_0::SimdShiftAcc            0      0.00%     51.97% # Class of committed instruction
system.cpu.commit.committedInstType_0::SimdDiv            0      0.00%     51.97% # Class of committed instruction
system.cpu.commit.committedInstType_0::SimdSqrt            0      0.00%     51.97% # Class of committed instruction
system.cpu.commit.committedInstType_0::SimdFloatAdd      2097152     14.49%     66.46% # Class of committed instruction
system.cpu.commit.committedInstType_0::SimdFloatAlu            0      0.00%     66.46% # Class of committed instruction
system.cpu.commit.committedInstType_0::SimdFloatCmp            0      0.00%     66.46% # Class of committed instruction
system.cpu.commit.committedInstType_0::SimdFloatCvt            0      0.00%     66.46% # Class of committed instruction
system.cpu.commit.committedInstType_0::SimdFloatDiv            0      0.00%     66.46% # Class of committed instruction
system.cpu.commit.committedInstType_0::SimdFloatMisc            0      0.00%     66.46% # Class of committed instruction
system.cpu.commit.committedInstType_0::SimdFloatMult      2097152     14.49%     80.96% # Class of committed instruction
system.cpu.commit.committedInstType_0::SimdFloatMultAcc            0      0.00%     80.96% # Class of committed instruction
system.cpu.commit.committedInstType_0::SimdFloatSqrt            0      0.00%     80.96% # Class of committed instruction
system.cpu.commit.committedInstType_0::SimdReduceAdd            0      0.00%     80.96% # Class of committed instruction
system.cpu.commit.committedInstType_0::SimdReduceAlu            0      0.00%     80.96% # Class of committed instruction
system.cpu.commit.committedInstType_0::SimdReduceCmp            0      0.00%     80.96% # Class of committed instruction
system.cpu.commit.committedInstType_0::SimdFloatReduceAdd            0      0.00%     80.96% # Class of committed instruction
system.cpu.commit.committedInstType_0::SimdFloatReduceCmp            0      0.00%     80.96% # Class of committed instruction
system.cpu.commit.committedInstType_0::SimdAes            0      0.00%     80.96% # Class of committed instruction
system.cpu.commit.committedInstType_0::SimdAesMix            0      0.00%     80.96% # Class of committed instruction
system.cpu.commit.committedInstType_0::SimdSha1Hash            0      0.00%     80.96% # Class of committed instruction
system.cpu.commit.committedInstType_0::SimdSha1Hash2            0      0.00%     80.96% # Class of committed instruction
system.cpu.commit.committedInstType_0::SimdSha256Hash            0      0.00%     80.96% # Class of committed instruction
system.cpu.commit.committedInstType_0::SimdSha256Hash2            0      0.00%     80.96% # Class of committed instruction
system.cpu.commit.committedInstType_0::SimdShaSigma2            0      0.00%     80.96% # Class of committed instruction
system.cpu.commit.committedInstType_0::SimdShaSigma3            0      0.00%     80.96% # Class of committed instruction
system.cpu.commit.committedInstType_0::SimdPredAlu            0      0.00%     80.96% # Class of committed instruction
system.cpu.commit.committedInstType_0::MemRead         1437      0.01%     80.97% # Class of committed instruction
system.cpu.commit.committedInstType_0::MemWrite         1133      0.01%     80.98% # Class of committed instruction
system.cpu.commit.committedInstType_0::FloatMemRead      2621486     18.12%     99.09% # Class of committed instruction
system.cpu.commit.committedInstType_0::FloatMemWrite       131530      0.91%    100.00% # Class of committed instruction
system.cpu.commit.committedInstType_0::IprAccess            0      0.00%    100.00% # Class of committed instruction
system.cpu.commit.committedInstType_0::InstPrefetch            0      0.00%    100.00% # Class of committed instruction
system.cpu.commit.committedInstType_0::total     14470629                       # Class of committed instruction
system.cpu.commit.commitEligibleSamples       1105378                       # number cycles where commit BW limit reached
system.cpu.dcache.demand_hits::.cpu.data      2589742                       # number of demand (read+write) hits
system.cpu.dcache.demand_hits::total          2589742                       # number of demand (read+write) hits
system.cpu.dcache.overall_hits::.cpu.data      2589742                       # number of overall hits
system.cpu.dcache.overall_hits::total         2589742                       # number of overall hits
system.cpu.dcache.demand_misses::.cpu.data       298263                       # number of demand (read+write) misses
system.cpu.dcache.demand_misses::total         298263                       # number of demand (read+write) misses
system.cpu.dcache.overall_misses::.cpu.data       298263                       # number of overall misses
system.cpu.dcache.overall_misses::total        298263                       # number of overall misses
system.cpu.dcache.demand_miss_latency::.cpu.data   4784322529                       # number of demand (read+write) miss cycles
system.cpu.dcache.demand_miss_latency::total   4784322529                       # number of demand (read+write) miss cycles
system.cpu.dcache.overall_miss_latency::.cpu.data   4784322529                       # number of overall miss cycles
system.cpu.dcache.overall_miss_latency::total   4784322529                       # number of overall miss cycles
system.cpu.dcache.demand_accesses::.cpu.data      2888005                       # number of demand (read+write) accesses
system.cpu.dcache.demand_accesses::total      2888005                       # number of demand (read+write) accesses
system.cpu.dcache.overall_accesses::.cpu.data      2888005                       # number of overall (read+write) accesses
system.cpu.dcache.overall_accesses::total      2888005                       # number of overall (read+write) accesses
system.cpu.dcache.demand_miss_rate::.cpu.data     0.103276                       # miss rate for demand accesses
system.cpu.dcache.demand_miss_rate::total     0.103276                       # miss rate for demand accesses
system.cpu.dcache.overall_miss_rate::.cpu.data     0.103276                       # miss rate for overall accesses
system.cpu.dcache.overall_miss_rate::total     0.103276                       # miss rate for overall accesses
system.cpu.dcache.demand_avg_miss_latency::.cpu.data 16040.616935                       # average overall miss latency
system.cpu.dcache.demand_avg_miss_latency::total 16040.616935                       # average overall miss latency
system.cpu.dcache.overall_avg_miss_latency::.cpu.data 16040.616935                       # average overall miss latency
system.cpu.dcache.overall_avg_miss_latency::total 16040.616935                       # average overall miss latency
system.cpu.dcache.blocked_cycles::no_mshrs        37678                       # number of cycles access was blocked
system.cpu.dcache.blocked_cycles::no_targets            0                       # number of cycles access was blocked
system.cpu.dcache.blocked::no_mshrs              1873                       # number of cycles access was blocked
system.cpu.dcache.blocked::no_targets               0                       # number of cycles access was blocked
system.cpu.dcache.avg_blocked_cycles::no_mshrs    20.116391                       # average number of cycles each access was blocked
system.cpu.dcache.avg_blocked_cycles::no_targets          nan                       # average number of cycles each access was blocked
system.cpu.dcache.writebacks::.writebacks        36632                       # number of writebacks
system.cpu.dcache.writebacks::total             36632                       # number of writebacks
system.cpu.dcache.demand_mshr_hits::.cpu.data       250083                       # number of demand (read+write) MSHR hits
system.cpu.dcache.demand_mshr_hits::total       250083                       # number of demand (read+write) MSHR hits
system.cpu.dcache.overall_mshr_hits::.cpu.data       250083                       # number of overall MSHR hits
system.cpu.dcache.overall_mshr_hits::total       250083                       # number of overall MSHR hits
system.cpu.dcache.demand_mshr_misses::.cpu.data        48180                       # number of demand (read+write) MSHR misses
system.cpu.dcache.demand_mshr_misses::total        48180                       # number of demand (read+write) MSHR misses
system.cpu.dcache.overall_mshr_misses::.cpu.data        48180                       # number of overall MSHR misses
system.cpu.dcache.overall_mshr_misses::total        48180                       # number of overall MSHR misses
system.cpu.dcache.demand_mshr_miss_latency::.cpu.data    805909299                       # number of demand (read+write) MSHR miss cycles
system.cpu.dcache.demand_mshr_miss_latency::total    805909299                       # number of demand (read+write) MSHR miss cycles
system.cpu.dcache.overall_mshr_miss_latency::.cpu.data    805909299                       # number of overall MSHR miss cycles
system.cpu.dcache.overall_mshr_miss_latency::total    805909299                       # number of overall MSHR miss cycles
system.cpu.dcache.demand_mshr_miss_rate::.cpu.data     0.016683                       # mshr miss rate for demand accesses
system.cpu.dcache.demand_mshr_miss_rate::total     0.016683                       # mshr miss rate for demand accesses
system.cpu.dcache.overall_mshr_miss_rate::.cpu.data     0.016683                       # mshr miss rate for overall accesses
system.cpu.dcache.overall_mshr_miss_rate::total     0.016683                       # mshr miss rate for overall accesses
system.cpu.dcache.demand_avg_mshr_miss_latency::.cpu.data 16727.050623                       # average overall mshr miss latency
system.cpu.dcache.demand_avg_mshr_miss_latency::total 16727.050623                       # average overall mshr miss latency
system.cpu.dcache.overall_avg_mshr_miss_latency::.cpu.data 16727.050623                       # average overall mshr miss latency
system.cpu.dcache.overall_avg_mshr_miss_latency::total 16727.050623                       # average overall mshr miss latency
system.cpu.dcache.replacements                  47156                       # number of replacements
system.cpu.dcache.ReadReq_hits::.cpu.data      2461308                       # number of ReadReq hits
system.cpu.dcache.ReadReq_hits::total         2461308                       # number of ReadReq hits
system.cpu.dcache.ReadReq_misses::.cpu.data       294033                       # number of ReadReq misses
system.cpu.dcache.ReadReq_misses::total        294033                       # number of ReadReq misses
system.cpu.dcache.ReadReq_miss_latency::.cpu.data   4718541230                       # number of ReadReq miss cycles
system.cpu.dcache.ReadReq_miss_latency::total   4718541230                       # number of ReadReq miss cycles
system.cpu.dcache.ReadReq_accesses::.cpu.data      2755341                       # number of ReadReq accesses(hits+misses)
system.cpu.dcache.ReadReq_accesses::total      2755341                       # number of ReadReq accesses(hits+misses)
system.cpu.dcache.ReadReq_miss_rate::.cpu.data     0.106714                       # miss rate for ReadReq accesses
system.cpu.dcache.ReadReq_miss_rate::total     0.106714                       # miss rate for ReadReq accesses
system.cpu.dcache.ReadReq_avg_miss_latency::.cpu.data 16047.658698                       # average ReadReq miss latency
system.cpu.dcache.ReadReq_avg_miss_latency::total 16047.658698                       # average ReadReq miss latency
system.cpu.dcache.ReadReq_mshr_hits::.cpu.data       250082                       # number of ReadReq MSHR hits
system.cpu.dcache.ReadReq_mshr_hits::total       250082                       # number of ReadReq MSHR hits
system.cpu.dcache.ReadReq_mshr_misses::.cpu.data        43951                       # number of ReadReq MSHR misses
system.cpu.dcache.ReadReq_mshr_misses::total        43951                       # number of ReadReq MSHR misses
system.cpu.dcache.ReadReq_mshr_miss_latency::.cpu.data    744408885                       # number of ReadReq MSHR miss cycles
system.cpu.dcache.ReadReq_mshr_miss_latency::total    744408885                       # number of ReadReq MSHR miss cycles
system.cpu.dcache.ReadReq_mshr_miss_rate::.cpu.data     0.015951                       # mshr miss rate for ReadReq accesses
system.cpu.dcache.ReadReq_mshr_miss_rate::total     0.015951                       # mshr miss rate for ReadReq accesses
system.cpu.dcache.ReadReq_avg_mshr_miss_latency::.cpu.data 16937.245683                       # average ReadReq mshr miss latency
system.cpu.dcache.ReadReq_avg_mshr_miss_latency::total 16937.245683                       # average ReadReq mshr miss latency
system.cpu.dcache.WriteReq_hits::.cpu.data       128434                       # number of WriteReq hits
system.cpu.dcache.WriteReq_hits::total         128434                       # number of WriteReq hits
system.cpu.dcache.WriteReq_misses::.cpu.data         4230                       # number of WriteReq misses
system.cpu.dcache.WriteReq_misses::total         4230                       # number of WriteReq misses
system.cpu.dcache.WriteReq_miss_latency::.cpu.data     65781299                       # number of WriteReq miss cycles
system.cpu.dcache.WriteReq_miss_latency::total     65781299                       # number of WriteReq miss cycles
system.cpu.dcache.WriteReq_accesses::.cpu.data       132664                       # number of WriteReq accesses(hits+misses)
system.cpu.dcache.WriteReq_accesses::total       132664                       # number of WriteReq accesses(hits+misses)
system.cpu.dcache.WriteReq_miss_rate::.cpu.data     0.031885                       # miss rate for WriteReq accesses
system.cpu.dcache.WriteReq_miss_rate::total     0.031885                       # miss rate for WriteReq accesses
system.cpu.dcache.WriteReq_avg_miss_latency::.cpu.data 15551.134515                       # average WriteReq miss latency
system.cpu.dcache.WriteReq_avg_miss_latency::total 15551.134515                       # average WriteReq miss latency
system.cpu.dcache.WriteReq_mshr_hits::.cpu.data            1                       # number of WriteReq MSHR hits
system.cpu.dcache.WriteReq_mshr_hits::total            1                       # number of WriteReq MSHR hits
system.cpu.dcache.WriteReq_mshr_misses::.cpu.data         4229                       # number of WriteReq MSHR misses
system.cpu.dcache.WriteReq_mshr_misses::total         4229                       # number of WriteReq MSHR misses
system.cpu.dcache.WriteReq_mshr_miss_latency::.cpu.data     61500414                       # number of WriteReq MSHR miss cycles
system.cpu.dcache.WriteReq_mshr_miss_latency::total     61500414                       # number of WriteReq MSHR miss cycles
system.cpu.dcache.WriteReq_mshr_miss_rate::.cpu.data     0.031878                       # mshr miss rate for WriteReq accesses
system.cpu.dcache.WriteReq_mshr_miss_rate::total     0.031878                       # mshr miss rate for WriteReq accesses
system.cpu.dcache.WriteReq_avg_mshr_miss_latency::.cpu.data 14542.542918                       # average WriteReq mshr miss latency
system.cpu.dcache.WriteReq_avg_mshr_miss_latency::total 14542.542918                       # average WriteReq mshr miss latency
system.cpu.dcache.power_state.pwrStateResidencyTicks::UNDEFINED   2018040600                       # Cumulative time (in ticks) in various power states
system.cpu.dcache.tags.tagsinuse           975.777505                       # Cycle average of tags in use
system.cpu.dcache.tags.total_refs             2637922                       # Total number of references to valid blocks.
system.cpu.dcache.tags.sampled_refs             48180                       # Sample count of references to valid blocks.
system.cpu.dcache.tags.avg_refs             54.751391                       # Average number of references to valid blocks.
system.cpu.dcache.tags.warmup_cycle            177760                       # Cycle when the warmup percentage was hit.
system.cpu.dcache.tags.occ_blocks::.cpu.data   975.777505                       # Average occupied blocks per requestor
system.cpu.dcache.tags.occ_percent::.cpu.data     0.952908                       # Average percentage of cache occupancy
system.cpu.dcache.tags.occ_percent::total     0.952908                       # Average percentage of cache occupancy
system.cpu.dcache.tags.occ_task_id_blocks::1024         1024                       # Occupied blocks per task id
system.cpu.dcache.tags.age_task_id_blocks_1024::0          147                       # Occupied blocks per task id
system.cpu.dcache.tags.age_task_id_blocks_1024::1          112                       # Occupied blocks per task id
system.cpu.dcache.tags.age_task_id_blocks_1024::2          515                       # Occupied blocks per task id
system.cpu.dcache.tags.age_task_id_blocks_1024::3          250                       # Occupied blocks per task id
system.cpu.dcache.tags.occ_task_id_percent::1024            1                       # Percentage of cache occupancy per task id
system.cpu.dcache.tags.tag_accesses          23152220                       # Number of tag accesses
system.cpu.dcache.tags.data_accesses         23152220                       # Number of data accesses
system.cpu.dcache.tags.power_state.pwrStateResidencyTicks::UNDEFINED   2018040600                       # Cumulative time (in ticks) in various power states
system.cpu.decode.idleCycles                  1600046                       # Number of cycles decode is idle
system.cpu.decode.blockedCycles                286502                       # Number of cycles decode is blocked
system.cpu.decode.runCycles                   2061255                       # Number of cycles decode is running
system.cpu.decode.unblockCycles                  9466                       # Number of cycles decode is unblocking
system.cpu.decode.squashCycles                    899                       # Number of cycles decode is squashing
system.cpu.decode.branchResolved               263657                       # Number of times decode resolved a  branch
system.cpu.decode.branchMispred                   216                       # Number of times decode detected a branch misprediction
system.cpu.decode.decodedInsts               14496825                       # Number of instructions handled by decode
system.cpu.decode.squashedInsts                  1122                       # Number of squashed instructions handled by decode
system.cpu.dtb.rdAccesses                     2755615                       # TLB accesses on read requests
system.cpu.dtb.wrAccesses                      133182                       # TLB accesses on write requests
system.cpu.dtb.rdMisses                           128                       # TLB misses on read requests
system.cpu.dtb.wrMisses                            23                       # TLB misses on write requests
system.cpu.dtb.walker.power_state.pwrStateResidencyTicks::UNDEFINED   2018040600                       # Cumulative time (in ticks) in various power states
system.cpu.dtb_walker_cache.blocked_cycles::no_mshrs            0                       # number of cycles access was blocked
system.cpu.dtb_walker_cache.blocked_cycles::no_targets            0                       # number of cycles access was blocked
system.cpu.dtb_walker_cache.blocked::no_mshrs            0                       # number of cycles access was blocked
system.cpu.dtb_walker_cache.blocked::no_targets            0                       # number of cycles access was blocked
system.cpu.dtb_walker_cache.avg_blocked_cycles::no_mshrs          nan                       # average number of cycles each access was blocked
system.cpu.dtb_walker_cache.avg_blocked_cycles::no_targets          nan                       # average number of cycles each access was blocked
system.cpu.dtb_walker_cache.replacements            0                       # number of replacements
system.cpu.dtb_walker_cache.power_state.pwrStateResidencyTicks::UNDEFINED   2018040600                       # Cumulative time (in ticks) in various power states
system.cpu.dtb_walker_cache.tags.tagsinuse            0                       # Cycle average of tags in use
system.cpu.dtb_walker_cache.tags.total_refs            0                       # Total number of references to valid blocks.
system.cpu.dtb_walker_cache.tags.sampled_refs            0                       # Sample count of references to valid blocks.
system.cpu.dtb_walker_cache.tags.avg_refs          nan                       # Average number of references to valid blocks.
system.cpu.dtb_walker_cache.tags.warmup_cycle            0                       # Cycle when the warmup percentage was hit.
system.cpu.dtb_walker_cache.tags.tag_accesses            0                       # Number of tag accesses
system.cpu.dtb_walker_cache.tags.data_accesses            0                       # Number of data accesses
system.cpu.dtb_walker_cache.tags.power_state.pwrStateResidencyTicks::UNDEFINED   2018040600                       # Cumulative time (in ticks) in various power states
system.cpu.fetch.icacheStallCycles            1101105                       # Number of cycles fetch is stalled on an Icache miss
system.cpu.fetch.insts                        8119177                       # Number of instructions fetch has processed
system.cpu.fetch.branches                      299122                       # Number of branches that fetch encountered
system.cpu.fetch.predictedBranches             263822                       # Number of branches that fetch has predicted taken
system.cpu.fetch.cycles                       2854927                       # Number of cycles fetch has run and was not squashing or blocked
system.cpu.fetch.squashCycles                    2216                       # Number of cycles fetch has spent squashing
system.cpu.fetch.miscStallCycles                  145                       # Number of cycles fetch has spent waiting on interrupts,or bad addresses, or out of MSHRs
system.cpu.fetch.pendingTrapStallCycles           848                       # Number of stall cycles due to pending traps
system.cpu.fetch.pendingQuiesceStallCycles           19                       # Number of stall cycles due to pending quiesce instructions
system.cpu.fetch.icacheWaitRetryStallCycles           16                       # Number of stall cycles due to full MSHR
system.cpu.fetch.cacheLines                   1084996                       # Number of cache lines fetched
system.cpu.fetch.icacheSquashes                   327                       # Number of outstanding Icache misses that were squashed
system.cpu.fetch.nisnDist::samples            3958168                       # Number of instructions fetched each cycle (Total)
system.cpu.fetch.nisnDist::mean              3.663503                       # Number of instructions fetched each cycle (Total)
system.cpu.fetch.nisnDist::stdev             3.895706                       # Number of instructions fetched each cycle (Total)
system.cpu.fetch.nisnDist::underflows               0      0.00%      0.00% # Number of instructions fetched each cycle (Total)
system.cpu.fetch.nisnDist::0                  1883161     47.58%     47.58% # Number of instructions fetched each cycle (Total)
system.cpu.fetch.nisnDist::1                   264411      6.68%     54.26% # Number of instructions fetched each cycle (Total)
system.cpu.fetch.nisnDist::2                      678      0.02%     54.27% # Number of instructions fetched each cycle (Total)
system.cpu.fetch.nisnDist::3                    33797      0.85%     55.13% # Number of instructions fetched each cycle (Total)
system.cpu.fetch.nisnDist::4                      864      0.02%     55.15% # Number of instructions fetched each cycle (Total)
system.cpu.fetch.nisnDist::5                      868      0.02%     55.17% # Number of instructions fetched each cycle (Total)
system.cpu.fetch.nisnDist::6                    33336      0.84%     56.01% # Number of instructions fetched each cycle (Total)
system.cpu.fetch.nisnDist::7                     2633      0.07%     56.08% # Number of instructions fetched each cycle (Total)
system.cpu.fetch.nisnDist::8                  1738420     43.92%    100.00% # Number of instructions fetched each cycle (Total)
system.cpu.fetch.nisnDist::overflows                0      0.00%    100.00% # Number of instructions fetched each cycle (Total)
system.cpu.fetch.nisnDist::min_value                0                       # Number of instructions fetched each cycle (Total)
system.cpu.fetch.nisnDist::max_value                8                       # Number of instructions fetched each cycle (Total)
system.cpu.fetch.nisnDist::total              3958168                       # Number of instructions fetched each cycle (Total)
system.cpu.fetch.branchRate                  0.074853                       # Number of branch fetches per cycle
system.cpu.fetch.rate                        2.031765                       # Number of inst fetches per cycle
system.cpu.icache.demand_hits::.cpu.inst      1084399                       # number of demand (read+write) hits
system.cpu.icache.demand_hits::total          1084399                       # number of demand (read+write) hits
system.cpu.icache.overall_hits::.cpu.inst      1084399                       # number of overall hits
system.cpu.icache.overall_hits::total         1084399                       # number of overall hits
system.cpu.icache.demand_misses::.cpu.inst          597                       # number of demand (read+write) misses
system.cpu.icache.demand_misses::total            597                       # number of demand (read+write) misses
system.cpu.icache.overall_misses::.cpu.inst          597                       # number of overall misses
system.cpu.icache.overall_misses::total           597                       # number of overall misses
system.cpu.icache.demand_miss_latency::.cpu.inst     45895410                       # number of demand (read+write) miss cycles
system.cpu.icache.demand_miss_latency::total     45895410                       # number of demand (read+write) miss cycles
system.cpu.icache.overall_miss_latency::.cpu.inst     45895410                       # number of overall miss cycles
system.cpu.icache.overall_miss_latency::total     45895410                       # number of overall miss cycles
system.cpu.icache.demand_accesses::.cpu.inst      1084996                       # number of demand (read+write) accesses
system.cpu.icache.demand_accesses::total      1084996                       # number of demand (read+write) accesses
system.cpu.icache.overall_accesses::.cpu.inst      1084996                       # number of overall (read+write) accesses
system.cpu.icache.overall_accesses::total      1084996                       # number of overall (read+write) accesses
system.cpu.icache.demand_miss_rate::.cpu.inst     0.000550                       # miss rate for demand accesses
system.cpu.icache.demand_miss_rate::total     0.000550                       # miss rate for demand accesses
system.cpu.icache.overall_miss_rate::.cpu.inst     0.000550                       # miss rate for overall accesses
system.cpu.icache.overall_miss_rate::total     0.000550                       # miss rate for overall accesses
system.cpu.icache.demand_avg_miss_latency::.cpu.inst 76876.733668                       # average overall miss latency
system.cpu.icache.demand_avg_miss_latency::total 76876.733668                       # average overall miss latency
system.cpu.icache.overall_avg_miss_latency::.cpu.inst 76876.733668                       # average overall miss latency
system.cpu.icache.overall_avg_miss_latency::total 76876.733668                       # average overall miss latency
system.cpu.icache.blocked_cycles::no_mshrs           41                       # number of cycles access was blocked
system.cpu.icache.blocked_cycles::no_targets            0                       # number of cycles access was blocked
system.cpu.icache.blocked::no_mshrs                 2                       # number of cycles access was blocked
system.cpu.icache.blocked::no_targets               0                       # number of cycles access was blocked
system.cpu.icache.avg_blocked_cycles::no_mshrs    20.500000                       # average number of cycles each access was blocked
system.cpu.icache.avg_blocked_cycles::no_targets          nan                       # average number of cycles each access was blocked
system.cpu.icache.writebacks::.writebacks           20                       # number of writebacks
system.cpu.icache.writebacks::total                20                       # number of writebacks
system.cpu.icache.demand_mshr_hits::.cpu.inst          140                       # number of demand (read+write) MSHR hits
system.cpu.icache.demand_mshr_hits::total          140                       # number of demand (read+write) MSHR hits
system.cpu.icache.overall_mshr_hits::.cpu.inst          140                       # number of overall MSHR hits
system.cpu.icache.overall_mshr_hits::total          140                       # number of overall MSHR hits
system.cpu.icache.demand_mshr_misses::.cpu.inst          457                       # number of demand (read+write) MSHR misses
system.cpu.icache.demand_mshr_misses::total          457                       # number of demand (read+write) MSHR misses
system.cpu.icache.overall_mshr_misses::.cpu.inst          457                       # number of overall MSHR misses
system.cpu.icache.overall_mshr_misses::total          457                       # number of overall MSHR misses
system.cpu.icache.demand_mshr_miss_latency::.cpu.inst     37319500                       # number of demand (read+write) MSHR miss cycles
system.cpu.icache.demand_mshr_miss_latency::total     37319500                       # number of demand (read+write) MSHR miss cycles
system.cpu.icache.overall_mshr_miss_latency::.cpu.inst     37319500                       # number of overall MSHR miss cycles
system.cpu.icache.overall_mshr_miss_latency::total     37319500                       # number of overall MSHR miss cycles
system.cpu.icache.demand_mshr_miss_rate::.cpu.inst     0.000421                       # mshr miss rate for demand accesses
system.cpu.icache.demand_mshr_miss_rate::total     0.000421                       # mshr miss rate for demand accesses
system.cpu.icache.overall_mshr_miss_rate::.cpu.inst     0.000421                       # mshr miss rate for overall accesses
system.cpu.icache.overall_mshr_miss_rate::total     0.000421                       # mshr miss rate for overall accesses
system.cpu.icache.demand_avg_mshr_miss_latency::.cpu.inst 81661.925602                       # average overall mshr miss latency
system.cpu.icache.demand_avg_mshr_miss_latency::total 81661.925602                       # average overall mshr miss latency
system.cpu.icache.overall_avg_mshr_miss_latency::.cpu.inst 81661.925602                       # average overall mshr miss latency
system.cpu.icache.overall_avg_mshr_miss_latency::total 81661.925602                       # average overall mshr miss latency
system.cpu.icache.replacements                     20                       # number of replacements
system.cpu.icache.ReadReq_hits::.cpu.inst      1084399                       # number of ReadReq hits
system.cpu.icache.ReadReq_hits::total         1084399                       # number of ReadReq hits
system.cpu.icache.ReadReq_misses::.cpu.inst          597                       # number of ReadReq misses
system.cpu.icache.ReadReq_misses::total           597                       # number of ReadReq misses
system.cpu.icache.ReadReq_miss_latency::.cpu.inst     45895410                       # number of ReadReq miss cycles
system.cpu.icache.ReadReq_miss_latency::total     45895410                       # number of ReadReq miss cycles
system.cpu.icache.ReadReq_accesses::.cpu.inst      1084996                       # number of ReadReq accesses(hits+misses)
system.cpu.icache.ReadReq_accesses::total      1084996                       # number of ReadReq accesses(hits+misses)
system.cpu.icache.ReadReq_miss_rate::.cpu.inst     0.000550                       # miss rate for ReadReq accesses
system.cpu.icache.ReadReq_miss_rate::total     0.000550                       # miss rate for ReadReq accesses
system.cpu.icache.ReadReq_avg_miss_latency::.cpu.inst 76876.733668                       # average ReadReq miss latency
system.cpu.icache.ReadReq_avg_miss_latency::total 76876.733668                       # average ReadReq miss latency
system.cpu.icache.ReadReq_mshr_hits::.cpu.inst          140                       # number of ReadReq MSHR hits
system.cpu.icache.ReadReq_mshr_hits::total          140                       # number of ReadReq MSHR hits
system.cpu.icache.ReadReq_mshr_misses::.cpu.inst          457                       # number of ReadReq MSHR misses
system.cpu.icache.ReadReq_mshr_misses::total          457                       # number of ReadReq MSHR misses
system.cpu.icache.ReadReq_mshr_miss_latency::.cpu.inst     37319500                       # number of ReadReq MSHR miss cycles
system.cpu.icache.ReadReq_mshr_miss_latency::total     37319500                       # number of ReadReq MSHR miss cycles
system.cpu.icache.ReadReq_mshr_miss_rate::.cpu.inst     0.000421                       # mshr miss rate for ReadReq accesses
system.cpu.icache.ReadReq_mshr_miss_rate::total     0.000421                       # mshr miss rate for ReadReq accesses
system.cpu.icache.ReadReq_avg_mshr_miss_latency::.cpu.inst 81661.925602                       # average ReadReq mshr miss latency
system.cpu.icache.ReadReq_avg_mshr_miss_latency::total 81661.925602                       # average ReadReq mshr miss latency
system.cpu.icache.power_state.pwrStateResidencyTicks::UNDEFINED   2018040600                       # Cumulative time (in ticks) in various power states
system.cpu.icache.tags.tagsinuse           393.980624                       # Cycle average of tags in use
system.cpu.icache.tags.total_refs             1084856                       # Total number of references to valid blocks.
system.cpu.icache.tags.sampled_refs               457                       # Sample count of references to valid blocks.
system.cpu.icache.tags.avg_refs           2373.864333                       # Average number of references to valid blocks.
system.cpu.icache.tags.warmup_cycle             87870                       # Cycle when the warmup percentage was hit.
system.cpu.icache.tags.occ_blocks::.cpu.inst   393.980624                       # Average occupied blocks per requestor
system.cpu.icache.tags.occ_percent::.cpu.inst     0.384747                       # Average percentage of cache occupancy
system.cpu.icache.tags.occ_percent::total     0.384747                       # Average percentage of cache occupancy
system.cpu.icache.tags.occ_task_id_blocks::1024          437                       # Occupied blocks per task id
system.cpu.icache.tags.age_task_id_blocks_1024::0           42                       # Occupied blocks per task id
system.cpu.icache.tags.age_task_id_blocks_1024::2            1                       # Occupied blocks per task id
system.cpu.icache.tags.age_task_id_blocks_1024::3          394                       # Occupied blocks per task id
system.cpu.icache.tags.occ_task_id_percent::1024     0.426758                       # Percentage of cache occupancy per task id
system.cpu.icache.tags.tag_accesses           2170449                       # Number of tag accesses
system.cpu.icache.tags.data_accesses          2170449                       # Number of data accesses
system.cpu.icache.tags.power_state.pwrStateResidencyTicks::UNDEFINED   2018040600                       # Cumulative time (in ticks) in various power states
system.cpu.interrupts.clk_domain.clock           8080                       # Clock period in ticks
system.cpu.itb.rdAccesses                           0                       # TLB accesses on read requests
system.cpu.itb.wrAccesses                     1085145                       # TLB accesses on write requests
system.cpu.itb.rdMisses                             0                       # TLB misses on read requests
system.cpu.itb.wrMisses                           192                       # TLB misses on write requests
system.cpu.itb.walker.power_state.pwrStateResidencyTicks::UNDEFINED   2018040600                       # Cumulative time (in ticks) in various power states
system.cpu.itb_walker_cache.blocked_cycles::no_mshrs            0                       # number of cycles access was blocked
system.cpu.itb_walker_cache.blocked_cycles::no_targets            0                       # number of cycles access was blocked
system.cpu.itb_walker_cache.blocked::no_mshrs            0                       # number of cycles access was blocked
system.cpu.itb_walker_cache.blocked::no_targets            0                       # number of cycles access was blocked
system.cpu.itb_walker_cache.avg_blocked_cycles::no_mshrs          nan                       # average number of cycles each access was blocked
system.cpu.itb_walker_cache.avg_blocked_cycles::no_targets          nan                       # average number of cycles each access was blocked
system.cpu.itb_walker_cache.replacements            0                       # number of replacements
system.cpu.itb_walker_cache.power_state.pwrStateResidencyTicks::UNDEFINED   2018040600                       # Cumulative time (in ticks) in various power states
system.cpu.itb_walker_cache.tags.tagsinuse            0                       # Cycle average of tags in use
system.cpu.itb_walker_cache.tags.total_refs            0                       # Total number of references to valid blocks.
system.cpu.itb_walker_cache.tags.sampled_refs            0                       # Sample count of references to valid blocks.
system.cpu.itb_walker_cache.tags.avg_refs          nan                       # Average number of references to valid blocks.
system.cpu.itb_walker_cache.tags.warmup_cycle            0                       # Cycle when the warmup percentage was hit.
system.cpu.itb_walker_cache.tags.tag_accesses            0                       # Number of tag accesses
system.cpu.itb_walker_cache.tags.data_accesses            0                       # Number of data accesses
system.cpu.itb_walker_cache.tags.power_state.pwrStateResidencyTicks::UNDEFINED   2018040600                       # Cumulative time (in ticks) in various power states
system.cpu.lsq0.forwLoads                         203                       # Number of loads that had data forwarded from stores
system.cpu.lsq0.squashedLoads                    2624                       # Number of loads squashed
system.cpu.lsq0.ignoredResponses                    2                       # Number of memory responses ignored because the instruction is squashed
system.cpu.lsq0.memOrderViolation                   9                       # Number of memory ordering violations
system.cpu.lsq0.squashedStores                    946                       # Number of stores squashed
system.cpu.lsq0.rescheduledLoads                    0                       # Number of loads that were rescheduled
system.cpu.lsq0.blockedByCache                   1717                       # Number of times an access to memory failed due to the cache being blocked
system.cpu.power_state.pwrStateResidencyTicks::ON   2018040600                       # Cumulative time (in ticks) in various power states
system.cpu.rename.squashCycles                    899                       # Number of cycles rename is squashing
system.cpu.rename.idleCycles                  1605064                       # Number of cycles rename is idle
system.cpu.rename.blockCycles                   25463                       # Number of cycles rename is blocking
system.cpu.rename.serializeStallCycles             35                       # count of cycles rename stalledfor serializing inst
system.cpu.rename.runCycles                   2065395                       # Number of cycles rename is running
system.cpu.rename.unblockCycles                261312                       # Number of cycles rename is unblocking
system.cpu.rename.renamedInsts               14494703                       # Number of instructions processed by rename
system.cpu.rename.ROBFullEvents                 15940                       # Number of times rename has blocked due to ROB full
system.cpu.rename.IQFullEvents                 101706                       # Number of times rename has blocked due to IQ full
system.cpu.rename.LQFullEvents                 239961                       # Number of times rename has blocked due to LQ full
system.cpu.rename.SQFullEvents                   6529                       # Number of times rename has blocked due to SQ full
system.cpu.rename.renamedOperands            15810172                       # Number of destination operands rename has renamed
system.cpu.rename.lookups                    26337580                       # Number of register rename lookups that rename has made
system.cpu.rename.intLookups                  8116120                       # Number of integer rename lookups
system.cpu.rename.fpLookups                  13371193                       # Number of floating rename lookups
system.cpu.rename.committedMaps              15785244                       # Number of HB maps that are committed
system.cpu.rename.undoneMaps                    24914                       # Number of HB maps that are undone due to squashing
system.cpu.rename.serializing                       4                       # count of serializing insts renamed
system.cpu.rename.tempSerializing                   4                       # count of temporary serializing insts renamed
system.cpu.rename.skidInsts                     50184                       # count of insts added to the skid buffer
system.cpu.rob.reads                         17337678                       # The number of ROB reads
system.cpu.rob.writes                        28977796                       # The number of ROB writes
system.cpu.thread_0.numInsts                  8104173                       # Number of Instructions committed
system.cpu.thread_0.numOps                   14470629                       # Number of Ops committed
system.cpu.thread_0.numMemRefs                      0                       # Number of Memory References
system.cpu_clk_domain.clock                       505                       # Clock period in ticks
system.cpu_voltage_domain.voltage                   1                       # Voltage in Volts
system.l2.demand_hits::.cpu.inst                    3                       # number of demand (read+write) hits
system.l2.demand_hits::.cpu.data                44880                       # number of demand (read+write) hits
system.l2.demand_hits::total                    44883                       # number of demand (read+write) hits
system.l2.overall_hits::.cpu.inst                   3                       # number of overall hits
system.l2.overall_hits::.cpu.data               44880                       # number of overall hits
system.l2.overall_hits::total                   44883                       # number of overall hits
system.l2.demand_misses::.cpu.inst                454                       # number of demand (read+write) misses
system.l2.demand_misses::.cpu.data               3300                       # number of demand (read+write) misses
system.l2.demand_misses::total                   3754                       # number of demand (read+write) misses
system.l2.overall_misses::.cpu.inst               454                       # number of overall misses
system.l2.overall_misses::.cpu.data              3300                       # number of overall misses
system.l2.overall_misses::total                  3754                       # number of overall misses
system.l2.demand_miss_latency::.cpu.inst     36590785                       # number of demand (read+write) miss cycles
system.l2.demand_miss_latency::.cpu.data    253380215                       # number of demand (read+write) miss cycles
system.l2.demand_miss_latency::total        289971000                       # number of demand (read+write) miss cycles
system.l2.overall_miss_latency::.cpu.inst     36590785                       # number of overall miss cycles
system.l2.overall_miss_latency::.cpu.data    253380215                       # number of overall miss cycles
system.l2.overall_miss_latency::total       289971000                       # number of overall miss cycles
system.l2.demand_accesses::.cpu.inst              457                       # number of demand (read+write) accesses
system.l2.demand_accesses::.cpu.data            48180                       # number of demand (read+write) accesses
system.l2.demand_accesses::total                48637                       # number of demand (read+write) accesses
system.l2.overall_accesses::.cpu.inst             457                       # number of overall (read+write) accesses
system.l2.overall_accesses::.cpu.data           48180                       # number of overall (read+write) accesses
system.l2.overall_accesses::total               48637                       # number of overall (read+write) accesses
system.l2.demand_miss_rate::.cpu.inst        0.993435                       # miss rate for demand accesses
system.l2.demand_miss_rate::.cpu.data        0.068493                       # miss rate for demand accesses
system.l2.demand_miss_rate::total            0.077184                       # miss rate for demand accesses
system.l2.overall_miss_rate::.cpu.inst       0.993435                       # miss rate for overall accesses
system.l2.overall_miss_rate::.cpu.data       0.068493                       # miss rate for overall accesses
system.l2.overall_miss_rate::total           0.077184                       # miss rate for overall accesses
system.l2.demand_avg_miss_latency::.cpu.inst 80596.442731                       # average overall miss latency
system.l2.demand_avg_miss_latency::.cpu.data 76781.883333                       # average overall miss latency
system.l2.demand_avg_miss_latency::total 77243.207246                       # average overall miss latency
system.l2.overall_avg_miss_latency::.cpu.inst 80596.442731                       # average overall miss latency
system.l2.overall_avg_miss_latency::.cpu.data 76781.883333                       # average overall miss latency
system.l2.overall_avg_miss_latency::total 77243.207246                       # average overall miss latency
system.l2.blocked_cycles::no_mshrs                  0                       # number of cycles access was blocked
system.l2.blocked_cycles::no_targets                0                       # number of cycles access was blocked
[...]
system.mem_ctrls.dram.bw_total::.cpu.data    104655972                       # Total bandwidth to/from this memory (bytes/s)
system.mem_ctrls.dram.bw_total::total       119054096                       # Total bandwidth to/from this memory (bytes/s)
system.mem_ctrls.dram.readBursts                 3754                       # Number of DRAM read bursts
system.mem_ctrls.dram.writeBursts                   0                       # Number of DRAM write bursts
system.mem_ctrls.dram.perBankRdBursts::0          224                       # Per bank write bursts
system.mem_ctrls.dram.perBankRdBursts::1          301                       # Per bank write bursts
system.mem_ctrls.dram.perBankRdBursts::2          264                       # Per bank write bursts
system.mem_ctrls.dram.perBankRdBursts::3          263                       # Per bank write bursts
system.mem_ctrls.dram.perBankRdBursts::4          263                       # Per bank write bursts
system.mem_ctrls.dram.perBankRdBursts::5          266                       # Per bank write bursts
system.mem_ctrls.dram.perBankRdBursts::6          331                       # Per bank write bursts
system.mem_ctrls.dram.perBankRdBursts::7          284                       # Per bank write bursts
system.mem_ctrls.dram.perBankRdBursts::8          281                       # Per bank write bursts
system.mem_ctrls.dram.perBankRdBursts::9          182                       # Per bank write bursts
system.mem_ctrls.dram.perBankRdBursts::10          146                       # Per bank write bursts
system.mem_ctrls.dram.perBankRdBursts::11          201                       # Per bank write bursts
system.mem_ctrls.dram.perBankRdBursts::12          184                       # Per bank write bursts
system.mem_ctrls.dram.perBankRdBursts::13          140                       # Per bank write bursts
system.mem_ctrls.dram.perBankRdBursts::14          187                       # Per bank write bursts
system.mem_ctrls.dram.perBankRdBursts::15          237                       # Per bank write bursts
system.mem_ctrls.dram.perBankWrBursts::0            0                       # Per bank write bursts
system.mem_ctrls.dram.perBankWrBursts::1            0                       # Per bank write bursts
system.mem_ctrls.dram.perBankWrBursts::2            0                       # Per bank write bursts
system.mem_ctrls.dram.perBankWrBursts::3            0                       # Per bank write bursts
system.mem_ctrls.dram.perBankWrBursts::4            0                       # Per bank write bursts
system.mem_ctrls.dram.perBankWrBursts::5            0                       # Per bank write bursts
system.mem_ctrls.dram.perBankWrBursts::6            0                       # Per bank write bursts
system.mem_ctrls.dram.perBankWrBursts::7            0                       # Per bank write bursts
system.mem_ctrls.dram.perBankWrBursts::8            0                       # Per bank write bursts
system.mem_ctrls.dram.perBankWrBursts::9            0                       # Per bank write bursts
system.mem_ctrls.dram.perBankWrBursts::10            0                       # Per bank write bursts
system.mem_ctrls.dram.perBankWrBursts::11            0                       # Per bank write bursts
system.mem_ctrls.dram.perBankWrBursts::12            0                       # Per bank write bursts
system.mem_ctrls.dram.perBankWrBursts::13            0                       # Per bank write bursts
system.mem_ctrls.dram.perBankWrBursts::14            0                       # Per bank write bursts
system.mem_ctrls.dram.perBankWrBursts::15            0                       # Per bank write bursts
system.mem_ctrls.dram.totQLat                25516570                       # Total ticks spent queuing
system.mem_ctrls.dram.totBusLat              18770000                       # Total ticks spent in databus transfers
system.mem_ctrls.dram.totMemAccLat           95904070                       # Total ticks spent from burst creation until serviced by the DRAM
system.mem_ctrls.dram.avgQLat                 6797.17                       # Average queueing delay per DRAM burst
system.mem_ctrls.dram.avgBusLat               5000.00                       # Average bus latency per DRAM burst
system.mem_ctrls.dram.avgMemAccLat           25547.17                       # Average memory access latency per DRAM burst
system.mem_ctrls.dram.readRowHits                3220                       # Number of row buffer hits during reads
system.mem_ctrls.dram.writeRowHits                  0                       # Number of row buffer hits during writes
system.mem_ctrls.dram.readRowHitRate            85.78                       # Row buffer hit rate for reads
system.mem_ctrls.dram.writeRowHitRate             nan                       # Row buffer hit rate for writes
system.mem_ctrls.dram.bytesPerActivate::samples          532                       # Bytes accessed per row activation
system.mem_ctrls.dram.bytesPerActivate::mean   448.601504                       # Bytes accessed per row activation
system.mem_ctrls.dram.bytesPerActivate::gmean   291.564624                       # Bytes accessed per row activation
system.mem_ctrls.dram.bytesPerActivate::stdev   356.358057                       # Bytes accessed per row activation
system.mem_ctrls.dram.bytesPerActivate::0-127          113     21.24%     21.24% # Bytes accessed per row activation
system.mem_ctrls.dram.bytesPerActivate::128-255           93     17.48%     38.72% # Bytes accessed per row activation
system.mem_ctrls.dram.bytesPerActivate::256-383           30      5.64%     44.36% # Bytes accessed per row activation
system.mem_ctrls.dram.bytesPerActivate::384-511           79     14.85%     59.21% # Bytes accessed per row activation
system.mem_ctrls.dram.bytesPerActivate::512-639           72     13.53%     72.74% # Bytes accessed per row activation
system.mem_ctrls.dram.bytesPerActivate::640-767           12      2.26%     75.00% # Bytes accessed per row activation
system.mem_ctrls.dram.bytesPerActivate::768-895           11      2.07%     77.07% # Bytes accessed per row activation
system.mem_ctrls.dram.bytesPerActivate::896-1023           18      3.38%     80.45% # Bytes accessed per row activation
system.mem_ctrls.dram.bytesPerActivate::1024-1151          104     19.55%    100.00% # Bytes accessed per row activation
system.mem_ctrls.dram.bytesPerActivate::total          532                       # Bytes accessed per row activation
system.mem_ctrls.dram.bytesRead                240256                       # Total number of bytes read from DRAM
system.mem_ctrls.dram.bytesWritten                  0                       # Total number of bytes written to DRAM
system.mem_ctrls.dram.avgRdBW              119.054096                       # Average DRAM read bandwidth in MiBytes/s
system.mem_ctrls.dram.avgWrBW                       0                       # Average DRAM write bandwidth in MiBytes/s
system.mem_ctrls.dram.peakBW                 12800.00                       # Theoretical peak bandwidth in MiByte/s
system.mem_ctrls.dram.busUtil                    0.93                       # Data bus utilization in percentage
system.mem_ctrls.dram.busUtilRead                0.93                       # Data bus utilization in percentage for reads
system.mem_ctrls.dram.busUtilWrite               0.00                       # Data bus utilization in percentage for writes
system.mem_ctrls.dram.pageHitRate               85.78                       # Row buffer hit rate, read and write combined
system.mem_ctrls.dram.power_state.pwrStateResidencyTicks::UNDEFINED   2018040600                       # Cumulative time (in ticks) in various power states
system.mem_ctrls.dram.rank0.actEnergy         2349060                       # Energy for activate commands per rank (pJ)
system.mem_ctrls.dram.rank0.preEnergy         1248555                       # Energy for precharge commands per rank (pJ)
system.mem_ctrls.dram.rank0.readEnergy       15679440                       # Energy for read commands per rank (pJ)
system.mem_ctrls.dram.rank0.writeEnergy             0                       # Energy for write commands per rank (pJ)
system.mem_ctrls.dram.rank0.refreshEnergy 159191760.000000                       # Energy for refresh commands per rank (pJ)
system.mem_ctrls.dram.rank0.actBackEnergy    304824030                       # Energy for active background per rank (pJ)
system.mem_ctrls.dram.rank0.preBackEnergy    518233920                       # Energy for precharge background per rank (pJ)
system.mem_ctrls.dram.rank0.actPowerDownEnergy            0                       # Energy for active power-down per rank (pJ)
system.mem_ctrls.dram.rank0.prePowerDownEnergy            0                       # Energy for precharge power-down per rank (pJ)
system.mem_ctrls.dram.rank0.selfRefreshEnergy            0                       # Energy for self refresh per rank (pJ)
system.mem_ctrls.dram.rank0.totalEnergy    1001526765                       # Total energy per rank (pJ)
system.mem_ctrls.dram.rank0.averagePower   496.286727                       # Core power per rank (mW)
system.mem_ctrls.dram.rank0.totalIdleTime            0                       # Total Idle time Per DRAM Rank
system.mem_ctrls.dram.rank0.pwrStateTime::IDLE   1343917820                       # Time in different power states
system.mem_ctrls.dram.rank0.pwrStateTime::REF     67340000                       # Time in different power states
system.mem_ctrls.dram.rank0.pwrStateTime::SREF            0                       # Time in different power states
system.mem_ctrls.dram.rank0.pwrStateTime::PRE_PDN            0                       # Time in different power states
system.mem_ctrls.dram.rank0.pwrStateTime::ACT    606782780                       # Time in different power states
system.mem_ctrls.dram.rank0.pwrStateTime::ACT_PDN            0                       # Time in different power states
system.mem_ctrls.dram.rank1.actEnergy         1463700                       # Energy for activate commands per rank (pJ)
system.mem_ctrls.dram.rank1.preEnergy          770385                       # Energy for precharge commands per rank (pJ)
system.mem_ctrls.dram.rank1.readEnergy       11124120                       # Energy for read commands per rank (pJ)
system.mem_ctrls.dram.rank1.writeEnergy             0                       # Energy for write commands per rank (pJ)
system.mem_ctrls.dram.rank1.refreshEnergy 159191760.000000                       # Energy for refresh commands per rank (pJ)
system.mem_ctrls.dram.rank1.actBackEnergy    176837940                       # Energy for active background per rank (pJ)
system.mem_ctrls.dram.rank1.preBackEnergy    626011680                       # Energy for precharge background per rank (pJ)
system.mem_ctrls.dram.rank1.actPowerDownEnergy            0                       # Energy for active power-down per rank (pJ)
system.mem_ctrls.dram.rank1.prePowerDownEnergy            0                       # Energy for precharge power-down per rank (pJ)
system.mem_ctrls.dram.rank1.selfRefreshEnergy            0                       # Energy for self refresh per rank (pJ)
system.mem_ctrls.dram.rank1.totalEnergy     975399585                       # Total energy per rank (pJ)
system.mem_ctrls.dram.rank1.averagePower   483.339921                       # Core power per rank (mW)
system.mem_ctrls.dram.rank1.totalIdleTime            0                       # Total Idle time Per DRAM Rank
system.mem_ctrls.dram.rank1.pwrStateTime::IDLE   1625805460                       # Time in different power states
system.mem_ctrls.dram.rank1.pwrStateTime::REF     67340000                       # Time in different power states
system.mem_ctrls.dram.rank1.pwrStateTime::SREF            0                       # Time in different power states
system.mem_ctrls.dram.rank1.pwrStateTime::PRE_PDN            0                       # Time in different power states
system.mem_ctrls.dram.rank1.pwrStateTime::ACT    324895140                       # Time in different power states
system.mem_ctrls.dram.rank1.pwrStateTime::ACT_PDN            0                       # Time in different power states
system.mem_ctrls.power_state.pwrStateResidencyTicks::UNDEFINED   2018040600                       # Cumulative time (in ticks) in various power states
system.membus.trans_dist::ReadResp               3647                       # Transaction distribution
system.membus.trans_dist::CleanEvict               15                       # Transaction distribution
system.membus.trans_dist::ReadExReq               107                       # Transaction distribution
system.membus.trans_dist::ReadExResp              107                       # Transaction distribution
system.membus.trans_dist::ReadSharedReq          3647                       # Transaction distribution
system.membus.pkt_count_system.l2.mem_side_port::system.mem_ctrls.port         7523                       # Packet count per connected requestor and responder (bytes)
system.membus.pkt_count_system.l2.mem_side_port::total         7523                       # Packet count per connected requestor and responder (bytes)
system.membus.pkt_count::total                   7523                       # Packet count per connected requestor and responder (bytes)
system.membus.pkt_size_system.l2.mem_side_port::system.mem_ctrls.port       240256                       # Cumulative packet size per connected requestor and responder (bytes)
system.membus.pkt_size_system.l2.mem_side_port::total       240256                       # Cumulative packet size per connected requestor and responder (bytes)
system.membus.pkt_size::total                  240256                       # Cumulative packet size per connected requestor and responder (bytes)
system.membus.snoops                                0                       # Total snoops (count)
system.membus.snoopTraffic                          0                       # Total snoop traffic (bytes)
system.membus.snoop_fanout::samples              3754                       # Request fanout histogram
system.membus.snoop_fanout::mean                    0                       # Request fanout histogram
system.membus.snoop_fanout::stdev                   0                       # Request fanout histogram
system.membus.snoop_fanout::underflows              0      0.00%      0.00% # Request fanout histogram
system.membus.snoop_fanout::0                    3754    100.00%    100.00% # Request fanout histogram
system.membus.snoop_fanout::1                       0      0.00%    100.00% # Request fanout histogram
system.membus.snoop_fanout::overflows               0      0.00%    100.00% # Request fanout histogram
system.membus.snoop_fanout::min_value               0                       # Request fanout histogram
system.membus.snoop_fanout::max_value               0                       # Request fanout histogram
system.membus.snoop_fanout::total                3754                       # Request fanout histogram
system.membus.power_state.pwrStateResidencyTicks::UNDEFINED   2018040600                       # Cumulative time (in ticks) in various power states
system.membus.reqLayer2.occupancy             5264485                       # Layer occupancy (ticks)
system.membus.reqLayer2.utilization               0.3                       # Layer utilization (%)
system.membus.respLayer1.occupancy           19802875                       # Layer occupancy (ticks)
system.membus.respLayer1.utilization              1.0                       # Layer utilization (%)
system.tol2bus.trans_dist::ReadResp             44408                       # Transaction distribution
system.tol2bus.trans_dist::WritebackDirty        36632                       # Transaction distribution
system.tol2bus.trans_dist::WritebackClean           20                       # Transaction distribution
system.tol2bus.trans_dist::CleanEvict           10866                       # Transaction distribution
system.tol2bus.trans_dist::ReadExReq             4229                       # Transaction distribution
system.tol2bus.trans_dist::ReadExResp            4229                       # Transaction distribution
system.tol2bus.trans_dist::ReadCleanReq           457                       # Transaction distribution
system.tol2bus.trans_dist::ReadSharedReq        43951                       # Transaction distribution
system.tol2bus.pkt_count_system.cpu.icache.mem_side_port::system.l2.cpu_side_port          934                       # Packet count per connected requestor and responder (bytes)
system.tol2bus.pkt_count_system.cpu.dcache.mem_side_port::system.l2.cpu_side_port       143516                       # Packet count per connected requestor and responder (bytes)
system.tol2bus.pkt_count::total                144450                       # Packet count per connected requestor and responder (bytes)
system.tol2bus.pkt_size_system.cpu.icache.mem_side_port::system.l2.cpu_side_port        30528                       # Cumulative packet size per connected requestor and responder (bytes)
system.tol2bus.pkt_size_system.cpu.dcache.mem_side_port::system.l2.cpu_side_port      5427968                       # Cumulative packet size per connected requestor and responder (bytes)
system.tol2bus.pkt_size::total                5458496                       # Cumulative packet size per connected requestor and responder (bytes)
system.tol2bus.snoops                             342                       # Total snoops (count)
system.tol2bus.snoopTraffic                         0                       # Total snoop traffic (bytes)
system.tol2bus.snoop_fanout::samples            48979                       # Request fanout histogram
system.tol2bus.snoop_fanout::mean            0.006942                       # Request fanout histogram
system.tol2bus.snoop_fanout::stdev           0.083028                       # Request fanout histogram
system.tol2bus.snoop_fanout::underflows             0      0.00%      0.00% # Request fanout histogram
system.tol2bus.snoop_fanout::0                  48639     99.31%     99.31% # Request fanout histogram
system.tol2bus.snoop_fanout::1                    340      0.69%    100.00% # Request fanout histogram
system.tol2bus.snoop_fanout::2                      0      0.00%    100.00% # Request fanout histogram
system.tol2bus.snoop_fanout::3                      0      0.00%    100.00% # Request fanout histogram
system.tol2bus.snoop_fanout::4                      0      0.00%    100.00% # Request fanout histogram
system.tol2bus.snoop_fanout::overflows              0      0.00%    100.00% # Request fanout histogram
system.tol2bus.snoop_fanout::min_value              0                       # Request fanout histogram
system.tol2bus.snoop_fanout::max_value              1                       # Request fanout histogram
system.tol2bus.snoop_fanout::total              48979                       # Request fanout histogram
system.tol2bus.power_state.pwrStateResidencyTicks::UNDEFINED   2018040600                       # Cumulative time (in ticks) in various power states
system.tol2bus.reqLayer0.occupancy           85404085                       # Layer occupancy (ticks)
system.tol2bus.reqLayer0.utilization              4.2                       # Layer utilization (%)
system.tol2bus.respLayer0.occupancy            692355                       # Layer occupancy (ticks)
system.tol2bus.respLayer0.utilization             0.0                       # Layer utilization (%)
system.tol2bus.respLayer1.occupancy          72992700                       # Layer occupancy (ticks)
system.tol2bus.respLayer1.utilization             3.6                       # Layer utilization (%)
system.voltage_domain.voltage                       1                       # Voltage in Volts

---------- End Simulation Statistics   ----------
