
---------- Begin Simulation Statistics ----------
final_tick                                11657133215                       # Number of ticks from beginning of simulation (restored from checkpoints and never reset)
host_inst_rate                                 156734                       # Simulator instruction rate (inst/s)
host_mem_usage                                 656632                       # Number of bytes of host memory used
host_op_rate                                   279008                       # Simulator op (including micro ops) rate (op/s)
host_seconds                                    63.78                       # Real time elapsed on the host
host_tick_rate                              182781212                       # Simulator tick rate (ticks/s)
sim_freq                                 1000000000000                       # Frequency of simulated ticks
sim_insts                                     9995921                       # Number of instructions simulated
sim_ops                                      17794161                       # Number of ops (including micro ops) simulated
sim_seconds                                  0.011657                       # Number of seconds simulated
sim_ticks                                 11657133215                       # Number of ticks simulated
system.cpu.cc_regfile_reads                  11357615                       # number of cc regfile reads
system.cpu.cc_regfile_writes                  9084504                       # number of cc regfile writes
system.cpu.committedInsts                     9995921                       # Number of Instructions Simulated
system.cpu.committedOps                      17794161                       # Number of Ops (including micro ops) Simulated
system.cpu.cpi                               2.563053                       # CPI: Cycles Per Instruction
system.cpu.cpi_total                         2.563053                       # CPI: Total CPI of All Threads
system.cpu.fp_regfile_reads                   4376538                       # number of floating regfile reads
system.cpu.fp_regfile_writes                  2000723                       # number of floating regfile writes
system.cpu.idleCycles                           40829                       # Total number of cycles that the CPU has spent unscheduled due to idling
system.cpu.iew.branchMispredicts                 1091                       # Number of branch mispredicts detected at execute
system.cpu.iew.exec_branches                  2271721                       # Number of branches executed
system.cpu.iew.exec_nop                             0                       # number of nop insts executed
system.cpu.iew.exec_rate                     0.696868                       # Inst execution rate
system.cpu.iew.exec_refs                      2335843                       # number of memory reference insts executed
system.cpu.iew.exec_stores                    2207014                       # Number of stores executed
system.cpu.iew.exec_swp                             0                       # number of swp insts executed
system.cpu.iew.iewBlockCycles                  149745                       # Number of cycles IEW is blocking
system.cpu.iew.iewDispLoadInsts                129289                       # Number of dispatched load instructions
system.cpu.iew.iewDispNonSpecInsts                 17                       # Number of dispatched non-speculative instructions
system.cpu.iew.iewDispSquashedInsts                25                       # Number of squashed instructions skipped by dispatch
system.cpu.iew.iewDispStoreInsts              2207515                       # Number of dispatched store instructions
system.cpu.iew.iewDispatchedInsts            17858784                       # Number of instructions dispatched to IQ
system.cpu.iew.iewExecLoadInsts                128829                       # Number of load instructions executed
system.cpu.iew.iewExecSquashedInsts              1071                       # Number of squashed instructions skipped in execute
system.cpu.iew.iewExecutedInsts              17853804                       # Number of executed instructions
system.cpu.iew.iewIQFullEvents                  31145                       # Number of times the IQ has become full, causing a stall
system.cpu.iew.iewIdleCycles                        0                       # Number of cycles IEW is idle
system.cpu.iew.iewLSQFullEvents               6253122                       # Number of times the LSQ has become full, causing a stall
system.cpu.iew.iewSquashCycles                   1238                       # Number of cycles IEW is squashing
system.cpu.iew.iewUnblockCycles               6299751                       # Number of cycles IEW is unblocking
system.cpu.iew.memOrderViolationEvents             11                       # Number of memory order violations
system.cpu.iew.predictedNotTakenIncorrect          731                       # Number of branches that were predicted not taken incorrectly
system.cpu.iew.predictedTakenIncorrect            360                       # Number of branches that were predicted taken incorrectly
system.cpu.iew.wb_consumers                  18130452                       # num instructions consuming a value
system.cpu.iew.wb_count                      17846136                       # cumulative count of insts written-back
system.cpu.iew.wb_fanout                     0.656844                       # average fanout of values written-back
system.cpu.iew.wb_producers                  11908875                       # num instructions producing a value
system.cpu.iew.wb_rate                       0.696568                       # insts written-back per cycle
system.cpu.iew.wb_sent                       17853323                       # cumulative count of insts sent to commit
system.cpu.int_regfile_reads                 22738017                       # number of integer regfile reads
system.cpu.int_regfile_writes                11374315                       # number of integer regfile writes
system.cpu.ipc                               0.390160                       # IPC: Instructions Per Cycle
system.cpu.ipc_total                         0.390160                       # IPC: Total IPC of All Threads
system.cpu.iq.FU_type_0::No_OpClass               788      0.00%      0.00% # Type of FU issued
system.cpu.iq.FU_type_0::IntAlu              14016172     78.50%     78.50% # Type of FU issued
system.cpu.iq.FU_type_0::IntMult                 1164      0.01%     78.51% # Type of FU issued
system.cpu.iq.FU_type_0::IntDiv                    30      0.00%     78.51% # Type of FU issued
system.cpu.iq.FU_type_0::FloatAdd                 145      0.00%     78.51% # Type of FU issued
system.cpu.iq.FU_type_0::FloatCmp                   0      0.00%     78.51% # Type of FU issued
system.cpu.iq.FU_type_0::FloatCvt                   0      0.00%     78.51% # Type of FU issued
system.cpu.iq.FU_type_0::FloatMult                  0      0.00%     78.51% # Type of FU issued
system.cpu.iq.FU_type_0::FloatMultAcc               0      0.00%     78.51% # Type of FU issued
system.cpu.iq.FU_type_0::FloatDiv                   0      0.00%     78.51% # Type of FU issued
system.cpu.iq.FU_type_0::FloatMisc                  0      0.00%     78.51% # Type of FU issued
system.cpu.iq.FU_type_0::FloatSqrt                  0      0.00%     78.51% # Type of FU issued
system.cpu.iq.FU_type_0::SimdAdd               499996      2.80%     81.31% # Type of FU issued
system.cpu.iq.FU_type_0::SimdAddAcc                 0      0.00%     81.31% # Type of FU issued
system.cpu.iq.FU_type_0::SimdAlu               125178      0.70%     82.01% # Type of FU issued
system.cpu.iq.FU_type_0::SimdCmp                    0      0.00%     82.01% # Type of FU issued
system.cpu.iq.FU_type_0::SimdCvt               125046      0.70%     82.71% # Type of FU issued
system.cpu.iq.FU_type_0::SimdMisc              750207      4.20%     86.92% # Type of FU issued
system.cpu.iq.FU_type_0::SimdMult                   0      0.00%     86.92% # Type of FU issued
system.cpu.iq.FU_type_0::SimdMultAcc                0      0.00%     86.92% # Type of FU issued
system.cpu.iq.FU_type_0::SimdShift                 13      0.00%     86.92% # Type of FU issued
system.cpu.iq.FU_type_0::SimdShiftAcc               0      0.00%     86.92% # Type of FU issued
system.cpu.iq.FU_type_0::SimdDiv                    0      0.00%     86.92% # Type of FU issued
system.cpu.iq.FU_type_0::SimdSqrt                   0      0.00%     86.92% # Type of FU issued
system.cpu.iq.FU_type_0::SimdFloatAdd               0      0.00%     86.92% # Type of FU issued
system.cpu.iq.FU_type_0::SimdFloatAlu               0      0.00%     86.92% # Type of FU issued
system.cpu.iq.FU_type_0::SimdFloatCmp               0      0.00%     86.92% # Type of FU issued
system.cpu.iq.FU_type_0::SimdFloatCvt               0      0.00%     86.92% # Type of FU issued
system.cpu.iq.FU_type_0::SimdFloatDiv               0      0.00%     86.92% # Type of FU issued
system.cpu.iq.FU_type_0::SimdFloatMisc              0      0.00%     86.92% # Type of FU issued
system.cpu.iq.FU_type_0::SimdFloatMult              0      0.00%     86.92% # Type of FU issued
system.cpu.iq.FU_type_0::SimdFloatMultAcc            0      0.00%     86.92% # Type of FU issued
system.cpu.iq.FU_type_0::SimdFloatSqrt              0      0.00%     86.92% # Type of FU issued
system.cpu.iq.FU_type_0::SimdReduceAdd              0      0.00%     86.92% # Type of FU issued
system.cpu.iq.FU_type_0::SimdReduceAlu              0      0.00%     86.92% # Type of FU issued
system.cpu.iq.FU_type_0::SimdReduceCmp              0      0.00%     86.92% # Type of FU issued
system.cpu.iq.FU_type_0::SimdFloatReduceAdd            0      0.00%     86.92% # Type of FU issued
system.cpu.iq.FU_type_0::SimdFloatReduceCmp            0      0.00%     86.92% # Type of FU issued
system.cpu.iq.FU_type_0::SimdAes                    0      0.00%     86.92% # Type of FU issued
system.cpu.iq.FU_type_0::SimdAesMix                 0      0.00%     86.92% # Type of FU issued
system.cpu.iq.FU_type_0::SimdSha1Hash               0      0.00%     86.92% # Type of FU issued
system.cpu.iq.FU_type_0::SimdSha1Hash2              0      0.00%     86.92% # Type of FU issued
system.cpu.iq.FU_type_0::SimdSha256Hash             0      0.00%     86.92% # Type of FU issued
system.cpu.iq.FU_type_0::SimdSha256Hash2            0      0.00%     86.92% # Type of FU issued
system.cpu.iq.FU_type_0::SimdShaSigma2              0      0.00%     86.92% # Type of FU issued
system.cpu.iq.FU_type_0::SimdShaSigma3              0      0.00%     86.92% # Type of FU issued
system.cpu.iq.FU_type_0::SimdPredAlu                0      0.00%     86.92% # Type of FU issued
system.cpu.iq.FU_type_0::MemRead                 3964      0.02%     86.94% # Type of FU issued
system.cpu.iq.FU_type_0::MemWrite             2206580     12.36%     99.30% # Type of FU issued
system.cpu.iq.FU_type_0::FloatMemRead          125064      0.70%    100.00% # Type of FU issued
system.cpu.iq.FU_type_0::FloatMemWrite            528      0.00%    100.00% # Type of FU issued
system.cpu.iq.FU_type_0::IprAccess                  0      0.00%    100.00% # Type of FU issued
system.cpu.iq.FU_type_0::InstPrefetch               0      0.00%    100.00% # Type of FU issued
system.cpu.iq.FU_type_0::total               17854875                       # Type of FU issued
system.cpu.iq.fp_alu_accesses                 2281842                       # Number of floating point alu accesses
system.cpu.iq.fp_inst_queue_reads             4283163                       # Number of floating instruction queue reads
system.cpu.iq.fp_inst_queue_wakeup_accesses      2001290                       # Number of floating instruction queue wakeup accesses
system.cpu.iq.fp_inst_queue_writes            2001638                       # Number of floating instruction queue writes
system.cpu.iq.fu_busy_cnt                      335476                       # FU busy when requested
system.cpu.iq.fu_busy_rate                   0.018789                       # FU busy rate (busy events/executed inst)
system.cpu.iq.fu_full::No_OpClass                   0      0.00%      0.00% # attempts to use FU when none available
system.cpu.iq.fu_full::IntAlu                   54892     16.36%     16.36% # attempts to use FU when none available
system.cpu.iq.fu_full::IntMult                      0      0.00%     16.36% # attempts to use FU when none available
system.cpu.iq.fu_full::IntDiv                       0      0.00%     16.36% # attempts to use FU when none available
system.cpu.iq.fu_full::FloatAdd                     0      0.00%     16.36% # attempts to use FU when none available
system.cpu.iq.fu_full::FloatCmp                     0      0.00%     16.36% # attempts to use FU when none available
system.cpu.iq.fu_full::FloatCvt                     0      0.00%     16.36% # attempts to use FU when none available
system.cpu.iq.fu_full::FloatMult                    0      0.00%     16.36% # attempts to use FU when none available
system.cpu.iq.fu_full::FloatMultAcc                 0      0.00%     16.36% # attempts to use FU when none available
system.cpu.iq.fu_full::FloatDiv                     0      0.00%     16.36% # attempts to use FU when none available
system.cpu.iq.fu_full::FloatMisc                    0      0.00%     16.36% # attempts to use FU when none available
system.cpu.iq.fu_full::FloatSqrt                    0      0.00%     16.36% # attempts to use FU when none available
system.cpu.iq.fu_full::SimdAdd                      0      0.00%     16.36% # attempts to use FU when none available
system.cpu.iq.fu_full::SimdAddAcc                   0      0.00%     16.36% # attempts to use FU when none available
system.cpu.iq.fu_full::SimdAlu                  93478     27.86%     44.23% # attempts to use FU when none available
system.cpu.iq.fu_full::SimdCmp                      0      0.00%     44.23% # attempts to use FU when none available
system.cpu.iq.fu_full::SimdCvt                 124644     37.15%     81.38% # attempts to use FU when none available
system.cpu.iq.fu_full::SimdMisc                 62396     18.60%     99.98% # attempts to use FU when none available
system.cpu.iq.fu_full::SimdMult                     0      0.00%     99.98% # attempts to use FU when none available
system.cpu.iq.fu_full::SimdMultAcc                  0      0.00%     99.98% # attempts to use FU when none available
system.cpu.iq.fu_full::SimdShift                    0      0.00%     99.98% # attempts to use FU when none available
system.cpu.iq.fu_full::SimdShiftAcc                 0      0.00%     99.98% # attempts to use FU when none available
system.cpu.iq.fu_full::SimdDiv                      0      0.00%     99.98% # attempts to use FU when none available
system.cpu.iq.fu_full::SimdSqrt                     0      0.00%     99.98% # attempts to use FU when none available
system.cpu.iq.fu_full::SimdFloatAdd                 0      0.00%     99.98% # attempts to use FU when none available
system.cpu.iq.fu_full::SimdFloatAlu                 0      0.00%     99.98% # attempts to use FU when none available
system.cpu.iq.fu_full::SimdFloatCmp                 0      0.00%     99.98% # attempts to use FU when none available
system.cpu.iq.fu_full::SimdFloatCvt                 0      0.00%     99.98% # attempts to use FU when none available
system.cpu.iq.fu_full::SimdFloatDiv                 0      0.00%     99.98% # attempts to use FU when none available
system.cpu.iq.fu_full::SimdFloatMisc                0      0.00%     99.98% # attempts to use FU when none available
system.cpu.iq.fu_full::SimdFloatMult                0      0.00%     99.98% # attempts to use FU when none available
system.cpu.iq.fu_full::SimdFloatMultAcc             0      0.00%     99.98% # attempts to use FU when none available
system.cpu.iq.fu_full::SimdFloatSqrt                0      0.00%     99.98% # attempts to use FU when none available
system.cpu.iq.fu_full::SimdReduceAdd                0      0.00%     99.98% # attempts to use FU when none available
system.cpu.iq.fu_full::SimdReduceAlu                0      0.00%     99.98% # attempts to use FU when none available
system.cpu.iq.fu_full::SimdReduceCmp                0      0.00%     99.98% # attempts to use FU when none available
system.cpu.iq.fu_full::SimdFloatReduceAdd            0      0.00%     99.98% # attempts to use FU when none available
system.cpu.iq.fu_full::SimdFloatReduceCmp            0      0.00%     99.98% # attempts to use FU when none available
system.cpu.iq.fu_full::SimdAes                      0      0.00%     99.98% # attempts to use FU when none available
system.cpu.iq.fu_full::SimdAesMix                   0      0.00%     99.98% # attempts to use FU when none available
system.cpu.iq.fu_full::SimdSha1Hash                 0      0.00%     99.98% # attempts to use FU when none available
system.cpu.iq.fu_full::SimdSha1Hash2                0      0.00%     99.98% # attempts to use FU when none available
system.cpu.iq.fu_full::SimdSha256Hash               0      0.00%     99.98% # attempts to use FU when none available
system.cpu.iq.fu_full::SimdSha256Hash2              0      0.00%     99.98% # attempts to use FU when none available
system.cpu.iq.fu_full::SimdShaSigma2                0      0.00%     99.98% # attempts to use FU when none available
system.cpu.iq.fu_full::SimdShaSigma3                0      0.00%     99.98% # attempts to use FU when none available
system.cpu.iq.fu_full::SimdPredAlu                  0      0.00%     99.98% # attempts to use FU when none available
system.cpu.iq.fu_full::MemRead                     35      0.01%     99.99% # attempts to use FU when none available
system.cpu.iq.fu_full::MemWrite                    22      0.01%    100.00% # attempts to use FU when none available
system.cpu.iq.fu_full::FloatMemRead                 2      0.00%    100.00% # attempts to use FU when none available
system.cpu.iq.fu_full::FloatMemWrite                7      0.00%    100.00% # attempts to use FU when none available
system.cpu.iq.fu_full::IprAccess                    0      0.00%    100.00% # attempts to use FU when none available
system.cpu.iq.fu_full::InstPrefetch                 0      0.00%    100.00% # attempts to use FU when none available
system.cpu.iq.int_alu_accesses               15907721                       # Number of integer alu accesses
system.cpu.iq.int_inst_queue_reads           57341372                       # Number of integer instruction queue reads
system.cpu.iq.int_inst_queue_wakeup_accesses     15844846                       # Number of integer instruction queue wakeup accesses
system.cpu.iq.int_inst_queue_writes          15921773                       # Number of integer instruction queue writes
system.cpu.iq.iqInstsAdded                   17858735                       # Number of instructions added to the IQ (excludes non-spec)
system.cpu.iq.iqInstsIssued                  17854875                       # Number of instructions issued
system.cpu.iq.iqNonSpecInstsAdded                  49                       # Number of non-speculative instructions added to the IQ
system.cpu.iq.iqSquashedInstsExamined           64617                       # Number of squashed instructions iterated over during squash; mainly for profiling
system.cpu.iq.iqSquashedInstsIssued                64                       # Number of squashed instructions issued
system.cpu.iq.iqSquashedNonSpecRemoved             37                       # Number of squashed non-spec instructions that were removed
system.cpu.iq.iqSquashedOperandsExamined        46491                       # Number of squashed operands that are examined and possibly removed from graph
system.cpu.iq.issued_per_cycle::samples      25579245                       # Number of insts issued each cycle
system.cpu.iq.issued_per_cycle::mean         0.698022                       # Number of insts issued each cycle
system.cpu.iq.issued_per_cycle::stdev        1.526798                       # Number of insts issued each cycle
system.cpu.iq.issued_per_cycle::underflows            0      0.00%      0.00% # Number of insts issued each cycle
system.cpu.iq.issued_per_cycle::0            19941759     77.96%     77.96% # Number of insts issued each cycle
system.cpu.iq.issued_per_cycle::1              991567      3.88%     81.84% # Number of insts issued each cycle
system.cpu.iq.issued_per_cycle::2             1561137      6.10%     87.94% # Number of insts issued each cycle
system.cpu.iq.issued_per_cycle::3              616525      2.41%     90.35% # Number of insts issued each cycle
system.cpu.iq.issued_per_cycle::4             1029478      4.02%     94.38% # Number of insts issued each cycle
system.cpu.iq.issued_per_cycle::5             1025350      4.01%     98.38% # Number of insts issued each cycle
system.cpu.iq.issued_per_cycle::6              325525      1.27%     99.66% # Number of insts issued each cycle
system.cpu.iq.issued_per_cycle::7                9585      0.04%     99.69% # Number of insts issued each cycle
system.cpu.iq.issued_per_cycle::8               78319      0.31%    100.00% # Number of insts issued each cycle
system.cpu.iq.issued_per_cycle::overflows            0      0.00%    100.00% # Number of insts issued each cycle
system.cpu.iq.issued_per_cycle::min_value            0                       # Number of insts issued each cycle
system.cpu.iq.issued_per_cycle::max_value            8                       # Number of insts issued each cycle
system.cpu.iq.issued_per_cycle::total        25579245                       # Number of insts issued each cycle
system.cpu.iq.rate                           0.696910                       # Inst issue rate
system.cpu.iq.vec_alu_accesses                      0                       # Number of vector alu accesses
system.cpu.iq.vec_inst_queue_reads                  0                       # Number of vector instruction queue reads
system.cpu.iq.vec_inst_queue_wakeup_accesses            0                       # Number of vector instruction queue wakeup accesses
system.cpu.iq.vec_inst_queue_writes                 0                       # Number of vector instruction queue writes
system.cpu.memDep0.conflictingLoads                38                       # Number of conflicting loads.
system.cpu.memDep0.conflictingStores               19                       # Number of conflicting stores.
system.cpu.memDep0.insertedLoads               129289                       # Number of loads inserted to the mem dependence unit.
system.cpu.memDep0.insertedStores             2207515                       # Number of stores inserted to the mem dependence unit.
system.cpu.misc_regfile_reads                 6880703                       # number of misc regfile reads
system.cpu.numCycles                         25620074                       # number of cpu cycles simulated
system.cpu.numWorkItemsCompleted                    0                       # number of work items this cpu completed
system.cpu.numWorkItemsStarted                      0                       # number of work items this cpu started
system.cpu.timesIdled                             317                       # Number of times that the entire CPU went into an idle state and unscheduled itself
system.cpu.workload.numSyscalls                    11                       # Number of system calls
system.membus.snoop_filter.hit_multi_requests            0                       # Number of requests hitting in the snoop filter with multiple (>1) holders of the requested data.
system.membus.snoop_filter.hit_multi_snoops            0                       # Number of snoops hitting in the snoop filter with multiple (>1) holders of the requested data.
system.membus.snoop_filter.hit_single_requests            2                       # Number of requests hitting in the snoop filter with a single holder of the requested data.
system.membus.snoop_filter.hit_single_snoops            0                       # Number of snoops hitting in the snoop filter with a single holder of the requested data.
system.membus.snoop_filter.tot_requests         16338                       # Total number of requests made to the snoop filter.
system.membus.snoop_filter.tot_snoops               0                       # Total number of snoops made to the snoop filter.
system.tol2bus.snoop_filter.hit_multi_requests            0                       # Number of requests hitting in the snoop filter with multiple (>1) holders of the requested data.
system.tol2bus.snoop_filter.hit_multi_snoops            0                       # Number of snoops hitting in the snoop filter with multiple (>1) holders of the requested data.
system.tol2bus.snoop_filter.hit_single_requests       756237                       # Number of requests hitting in the snoop filter with a single holder of the requested data.
system.tol2bus.snoop_filter.hit_single_snoops          417                       # Number of snoops hitting in the snoop filter with a single holder of the requested data.
system.tol2bus.snoop_filter.tot_requests      1513960                       # Total number of requests made to the snoop filter.
system.tol2bus.snoop_filter.tot_snoops            417                       # Total number of snoops made to the snoop filter.
system.clk_domain.clock                          1000                       # Clock period in ticks
system.cpu.branchPred.lookups                 2277367                       # Number of BP lookups
system.cpu.branchPred.condPredicted           2276138                       # Number of conditional branches predicted
system.cpu.branchPred.condIncorrect              1053                       # Number of conditional branches incorrect
system.cpu.branchPred.BTBLookups              2273706                       # Number of BTB lookups
system.cpu.branchPred.BTBHits                 2272905                       # Number of BTB hits
system.cpu.branchPred.BTBHitPct             99.964771                       # BTB Hit Percentage
system.cpu.branchPred.RASUsed                     299                       # Number of times the RAS was used to get a target.
system.cpu.branchPred.RASIncorrect                  0                       # Number of incorrect RAS predictions.
system.cpu.branchPred.indirectLookups             285                       # Number of indirect predictor lookups.
system.cpu.branchPred.indirectHits                 16                       # Number of indirect target hits.
system.cpu.branchPred.indirectMisses              269                       # Number of indirect misses.
system.cpu.branchPred.indirectMispredicted           91                       # Number of mispredicted indirect branches.
system.cpu.commit.commitSquashedInsts           64812                       # The number of squashed insts skipped by commit
system.cpu.commit.commitNonSpecStalls              12                       # The number of times commit has been forced to stall to communicate backwards
system.cpu.commit.branchMispredicts               970                       # The number of times a branch was mispredicted
system.cpu.commit.numCommittedDist::samples     25570471                       # Number of insts commited each cycle
system.cpu.commit.numCommittedDist::mean     0.695887                       # Number of insts commited each cycle
system.cpu.commit.numCommittedDist::stdev     1.551576                       # Number of insts commited each cycle
system.cpu.commit.numCommittedDist::underflows            0      0.00%      0.00% # Number of insts commited each cycle
system.cpu.commit.numCommittedDist::0        20027660     78.32%     78.32% # Number of insts commited each cycle
system.cpu.commit.numCommittedDist::1          238644      0.93%     79.26% # Number of insts commited each cycle
system.cpu.commit.numCommittedDist::2         2246632      8.79%     88.04% # Number of insts commited each cycle
system.cpu.commit.numCommittedDist::3         1471566      5.75%     93.80% # Number of insts commited each cycle
system.cpu.commit.numCommittedDist::4          728966      2.85%     96.65% # Number of insts commited each cycle
system.cpu.commit.numCommittedDist::5          289821      1.13%     97.78% # Number of insts commited each cycle
system.cpu.commit.numCommittedDist::6           42979      0.17%     97.95% # Number of insts commited each cycle
system.cpu.commit.numCommittedDist::7          168912      0.66%     98.61% # Number of insts commited each cycle
system.cpu.commit.numCommittedDist::8          355291      1.39%    100.00% # Number of insts commited each cycle
system.cpu.commit.numCommittedDist::overflows            0      0.00%    100.00% # Number of insts commited each cycle
system.cpu.commit.numCommittedDist::min_value            0                       # Number of insts commited each cycle
system.cpu.commit.numCommittedDist::max_value            8                       # Number of insts commited each cycle
system.cpu.commit.numCommittedDist::total     25570471                       # Number of insts commited each cycle
system.cpu.commit.instsCommitted              9995921                       # Number of instructions committed
system.cpu.commit.opsCommitted               17794161                       # Number of ops (including micro ops) committed
system.cpu.commit.memRefs                     2327019                       # Number of memory references committed
system.cpu.commit.loads                        127545                       # Number of loads committed
system.cpu.commit.amos                              0                       # Number of atomic instructions committed
system.cpu.commit.membars                           8                       # Number of memory barriers committed
system.cpu.commit.branches                    2264230                       # Number of branches committed
system.cpu.commit.vector                            0                       # Number of committed Vector instructions.
system.cpu.commit.floating                    2001126                       # Number of committed floating point instructions.
system.cpu.commit.integer                    15918412                       # Number of committed integer instructions.
system.cpu.commit.functionCalls                   148                       # Number of function calls committed.
system.cpu.commit.committedInstType_0::No_OpClass          287      0.00%      0.00% # Class of committed instruction
system.cpu.commit.committedInstType_0::IntAlu     13965345     78.48%     78.48% # Class of committed instruction
system.cpu.commit.committedInstType_0::IntMult         1004      0.01%     78.49% # Class of committed instruction
system.cpu.commit.committedInstType_0::IntDiv           21      0.00%     78.49% # Class of committed instruction
system.cpu.commit.committedInstType_0::FloatAdd          135      0.00%     78.49% # Class of committed instruction
system.cpu.commit.committedInstType_0::FloatCmp            0      0.00%     78.49% # Class of committed instruction
system.cpu.commit.committedInstType_0::FloatCvt            0      0.00%     78.49% # Class of committed instruction
system.cpu.commit.committedInstType_0::FloatMult            0      0.00%     78.49% # Class of committed instruction
system.cpu.commit.committedInstType_0::FloatMultAcc            0      0.00%     78.49% # Class of committed instruction
system.cpu.commit.committedInstType_0::FloatDiv            0      0.00%     78.49% # Class of committed instruction
system.cpu.commit.committedInstType_0::FloatMisc            0      0.00%     78.49% # Class of committed instruction
system.cpu.commit.committedInstType_0::FloatSqrt            0      0.00%     78.49% # Class of committed instruction
system.cpu.commit.committedInstType_0::SimdAdd       499996      2.81%     81.30% # Class of committed instruction
system.cpu.commit.committedInstType_0::SimdAddAcc            0      0.00%     81.30% # Class of committed instruction
system.cpu.commit.committedInstType_0::SimdAlu       125100      0.70%     82.00% # Class of committed instruction
system.cpu.commit.committedInstType_0::SimdCmp            0      0.00%     82.00% # Class of committed instruction
system.cpu.commit.committedInstType_0::SimdCvt       125044      0.70%     82.71% # Class of committed instruction
system.cpu.commit.committedInstType_0::SimdMisc       750204      4.22%     86.92% # Class of committed instruction
system.cpu.commit.committedInstType_0::SimdMult            0      0.00%     86.92% # Class of committed instruction
system.cpu.commit.committedInstType_0::SimdMultAcc            0      0.00%     86.92% # Class of committed instruction
system.cpu.commit.committedInstType_0::SimdShift            6      0.00%     86.92% # Class of committed instruction
system.cpu.commit.committedInstType_0::SimdShiftAcc            0      0.00%     86.92% # Class of committed instruction
system.cpu.commit.committedInstType_0::SimdDiv            0      0.00%     86.92% # Class of committed instruction
system.cpu.commit.committedInstType_0::SimdSqrt            0      0.00%     86.92% # Class of committed instruction
system.cpu.commit.committedInstType_0::SimdFloatAdd            0      0.00%     86.92% # Class of committed instruction
system.cpu.commit.committedInstType_0::SimdFloatAlu            0      0.00%     86.92% # Class of committed instruction
system.cpu.commit.committedInstType_0::SimdFloatCmp            0      0.00%     86.92% # Class of committed instruction
system.cpu.commit.committedInstType_0::SimdFloatCvt            0      0.00%     86.92% # Class of committed instruction
system.cpu.commit.committedInstType_0::SimdFloatDiv            0      0.00%     86.92% # Class of committed instruction
system.cpu.commit.committedInstType_0::SimdFloatMisc            0      0.00%     86.92% # Class of committed instruction
system.cpu.commit.committedInstType_0::SimdFloatMult            0      0.00%     86.92% # Class of committed instruction
system.cpu.commit.committedInstType_0::SimdFloatMultAcc            0      0.00%     86.92% # Class of committed instruction
system.cpu.commit.committedInstType_0::SimdFloatSqrt            0      0.00%     86.92% # Class of committed instruction
system.cpu.commit.committedInstType_0::SimdReduceAdd            0      0.00%     86.92% # Class of committed instruction
system.cpu.commit.committedInstType_0::SimdReduceAlu            0      0.00%     86.92% # Class of committed instruction
system.cpu.commit.committedInstType_0::SimdReduceCmp            0      0.00%     86.92% # Class of committed instruction
system.cpu.commit.committedInstType_0::SimdFloatReduceAdd            0      0.00%     86.92% # Class of committed instruction
system.cpu.commit.committedInstType_0::SimdFloatReduceCmp            0      0.00%     86.92% # Class of committed instruction
system.cpu.commit.committedInstType_0::SimdAes            0      0.00%     86.92% # Class of committed instruction
system.cpu.commit.committedInstType_0::SimdAesMix            0      0.00%     86.92% # Class of committed instruction
system.cpu.commit.committedInstType_0::SimdSha1Hash            0      0.00%     86.92% # Class of committed instruction
system.cpu.commit.committedInstType_0::SimdSha1Hash2            0      0.00%     86.92% # Class of committed instruction
system.cpu.commit.committedInstType_0::SimdSha256Hash            0      0.00%     86.92% # Class of committed instruction
system.cpu.commit.committedInstType_0::SimdSha256Hash2            0      0.00%     86.92% # Class of committed instruction
system.cpu.commit.committedInstType_0::SimdShaSigma2            0      0.00%     86.92% # Class of committed instruction
system.cpu.commit.committedInstType_0::SimdShaSigma3            0      0.00%     86.92% # Class of committed instruction
system.cpu.commit.committedInstType_0::SimdPredAlu            0      0.00%     86.92% # Class of committed instruction
system.cpu.commit.committedInstType_0::MemRead         2499      0.01%     86.94% # Class of committed instruction
system.cpu.commit.committedInstType_0::MemWrite      2199016     12.36%     99.29% # Class of committed instruction
system.cpu.commit.committedInstType_0::FloatMemRead       125046      0.70%    100.00% # Class of committed instruction
system.cpu.commit.committedInstType_0::FloatMemWrite          458      0.00%    100.00% # Class of committed instruction
system.cpu.commit.committedInstType_0::IprAccess            0      0.00%    100.00% # Class of committed instruction
system.cpu.commit.committedInstType_0::InstPrefetch            0      0.00%    100.00% # Class of committed instruction
system.cpu.commit.committedInstType_0::total     17794161                       # Class of committed instruction
system.cpu.commit.commitEligibleSamples        355291                       # number cycles where commit BW limit reached
system.cpu.dcache.demand_hits::.cpu.data      1523920                       # number of demand (read+write) hits
system.cpu.dcache.demand_hits::total          1523920                       # number of demand (read+write) hits
system.cpu.dcache.overall_hits::.cpu.data      1523920                       # number of overall hits
system.cpu.dcache.overall_hits::total         1523920                       # number of overall hits
system.cpu.dcache.demand_misses::.cpu.data       819697                       # number of demand (read+write) misses
system.cpu.dcache.demand_misses::total         819697                       # number of demand (read+write) misses
system.cpu.dcache.overall_misses::.cpu.data       819697                       # number of overall misses
system.cpu.dcache.overall_misses::total        819697                       # number of overall misses
system.cpu.dcache.demand_miss_latency::.cpu.data  10703201599                       # number of demand (read+write) miss cycles
system.cpu.dcache.demand_miss_latency::total  10703201599                       # number of demand (read+write) miss cycles
system.cpu.dcache.overall_miss_latency::.cpu.data  10703201599                       # number of overall miss cycles
system.cpu.dcache.overall_miss_latency::total  10703201599                       # number of overall miss cycles
system.cpu.dcache.demand_accesses::.cpu.data      2343617                       # number of demand (read+write) accesses
system.cpu.dcache.demand_accesses::total      2343617                       # number of demand (read+write) accesses
system.cpu.dcache.overall_accesses::.cpu.data      2343617                       # number of overall (read+write) accesses
system.cpu.dcache.overall_accesses::total      2343617                       # number of overall (read+write) accesses
system.cpu.dcache.demand_miss_rate::.cpu.data     0.349757                       # miss rate for demand accesses
system.cpu.dcache.demand_miss_rate::total     0.349757                       # miss rate for demand accesses
system.cpu.dcache.overall_miss_rate::.cpu.data     0.349757                       # miss rate for overall accesses
system.cpu.dcache.overall_miss_rate::total     0.349757                       # miss rate for overall accesses
system.cpu.dcache.demand_avg_miss_latency::.cpu.data 13057.509786                       # average overall miss latency
system.cpu.dcache.demand_avg_miss_latency::total 13057.509786                       # average overall miss latency
system.cpu.dcache.overall_avg_miss_latency::.cpu.data 13057.509786                       # average overall miss latency
system.cpu.dcache.overall_avg_miss_latency::total 13057.509786                       # average overall miss latency
system.cpu.dcache.blocked_cycles::no_mshrs         1241                       # number of cycles access was blocked
system.cpu.dcache.blocked_cycles::no_targets            0                       # number of cycles access was blocked
system.cpu.dcache.blocked::no_mshrs                19                       # number of cycles access was blocked
system.cpu.dcache.blocked::no_targets               0                       # number of cycles access was blocked
system.cpu.dcache.avg_blocked_cycles::no_mshrs    65.315789                       # average number of cycles each access was blocked
system.cpu.dcache.avg_blocked_cycles::no_targets          nan                       # average number of cycles each access was blocked
system.cpu.dcache.writebacks::.writebacks       756129                       # number of writebacks
system.cpu.dcache.writebacks::total            756129                       # number of writebacks
system.cpu.dcache.demand_mshr_hits::.cpu.data        62460                       # number of demand (read+write) MSHR hits
system.cpu.dcache.demand_mshr_hits::total        62460                       # number of demand (read+write) MSHR hits
system.cpu.dcache.overall_mshr_hits::.cpu.data        62460                       # number of overall MSHR hits
system.cpu.dcache.overall_mshr_hits::total        62460                       # number of overall MSHR hits
system.cpu.dcache.demand_mshr_misses::.cpu.data       757237                       # number of demand (read+write) MSHR misses
system.cpu.dcache.demand_mshr_misses::total       757237                       # number of demand (read+write) MSHR misses
system.cpu.dcache.overall_mshr_misses::.cpu.data       757237                       # number of overall MSHR misses
system.cpu.dcache.overall_mshr_misses::total       757237                       # number of overall MSHR misses
system.cpu.dcache.demand_mshr_miss_latency::.cpu.data   9508498999                       # number of demand (read+write) MSHR miss cycles
system.cpu.dcache.demand_mshr_miss_latency::total   9508498999                       # number of demand (read+write) MSHR miss cycles
system.cpu.dcache.overall_mshr_miss_latency::.cpu.data   9508498999                       # number of overall MSHR miss cycles
system.cpu.dcache.overall_mshr_miss_latency::total   9508498999                       # number of overall MSHR miss cycles
system.cpu.dcache.demand_mshr_miss_rate::.cpu.data     0.323106                       # mshr miss rate for demand accesses
system.cpu.dcache.demand_mshr_miss_rate::total     0.323106                       # mshr miss rate for demand accesses
system.cpu.dcache.overall_mshr_miss_rate::.cpu.data     0.323106                       # mshr miss rate for overall accesses
system.cpu.dcache.overall_mshr_miss_rate::total     0.323106                       # mshr miss rate for overall accesses
system.cpu.dcache.demand_avg_mshr_miss_latency::.cpu.data 12556.833592                       # average overall mshr miss latency
system.cpu.dcache.demand_avg_mshr_miss_latency::total 12556.833592                       # average overall mshr miss latency
system.cpu.dcache.overall_avg_mshr_miss_latency::.cpu.data 12556.833592                       # average overall mshr miss latency
system.cpu.dcache.overall_avg_mshr_miss_latency::total 12556.833592                       # average overall mshr miss latency
system.cpu.dcache.replacements                 756213                       # number of replacements
system.cpu.dcache.ReadReq_hits::.cpu.data        65941                       # number of ReadReq hits
system.cpu.dcache.ReadReq_hits::total           65941                       # number of ReadReq hits
system.cpu.dcache.ReadReq_misses::.cpu.data        78201                       # number of ReadReq misses
system.cpu.dcache.ReadReq_misses::total         78201                       # number of ReadReq misses
system.cpu.dcache.ReadReq_miss_latency::.cpu.data    702052715                       # number of ReadReq miss cycles
system.cpu.dcache.ReadReq_miss_latency::total    702052715                       # number of ReadReq miss cycles
system.cpu.dcache.ReadReq_accesses::.cpu.data       144142                       # number of ReadReq accesses(hits+misses)
system.cpu.dcache.ReadReq_accesses::total       144142                       # number of ReadReq accesses(hits+misses)
system.cpu.dcache.ReadReq_miss_rate::.cpu.data     0.542528                       # miss rate for ReadReq accesses
system.cpu.dcache.ReadReq_miss_rate::total     0.542528                       # miss rate for ReadReq accesses
system.cpu.dcache.ReadReq_avg_miss_latency::.cpu.data  8977.541400                       # average ReadReq miss latency
system.cpu.dcache.ReadReq_avg_miss_latency::total  8977.541400                       # average ReadReq miss latency
system.cpu.dcache.ReadReq_mshr_hits::.cpu.data        62459                       # number of ReadReq MSHR hits
system.cpu.dcache.ReadReq_mshr_hits::total        62459                       # number of ReadReq MSHR hits
system.cpu.dcache.ReadReq_mshr_misses::.cpu.data        15742                       # number of ReadReq MSHR misses
system.cpu.dcache.ReadReq_mshr_misses::total        15742                       # number of ReadReq MSHR misses
system.cpu.dcache.ReadReq_mshr_miss_latency::.cpu.data    182186095                       # number of ReadReq MSHR miss cycles
system.cpu.dcache.ReadReq_mshr_miss_latency::total    182186095                       # number of ReadReq MSHR miss cycles
system.cpu.dcache.ReadReq_mshr_miss_rate::.cpu.data     0.109212                       # mshr miss rate for ReadReq accesses
system.cpu.dcache.ReadReq_mshr_miss_rate::total     0.109212                       # mshr miss rate for ReadReq accesses
system.cpu.dcache.ReadReq_avg_mshr_miss_latency::.cpu.data 11573.249587                       # average ReadReq mshr miss latency
system.cpu.dcache.ReadReq_avg_mshr_miss_latency::total 11573.249587                       # average ReadReq mshr miss latency
system.cpu.dcache.WriteReq_hits::.cpu.data      1457979                       # number of WriteReq hits
system.cpu.dcache.WriteReq_hits::total        1457979                       # number of WriteReq hits
system.cpu.dcache.WriteReq_misses::.cpu.data       741496                       # number of WriteReq misses
system.cpu.dcache.WriteReq_misses::total       741496                       # number of WriteReq misses
system.cpu.dcache.WriteReq_miss_latency::.cpu.data  10001148884                       # number of WriteReq miss cycles
system.cpu.dcache.WriteReq_miss_latency::total  10001148884                       # number of WriteReq miss cycles
system.cpu.dcache.WriteReq_accesses::.cpu.data      2199475                       # number of WriteReq accesses(hits+misses)
system.cpu.dcache.WriteReq_accesses::total      2199475                       # number of WriteReq accesses(hits+misses)
system.cpu.dcache.WriteReq_miss_rate::.cpu.data     0.337124                       # miss rate for WriteReq accesses
system.cpu.dcache.WriteReq_miss_rate::total     0.337124                       # miss rate for WriteReq accesses
system.cpu.dcache.WriteReq_avg_miss_latency::.cpu.data 13487.798834                       # average WriteReq miss latency
system.cpu.dcache.WriteReq_avg_miss_latency::total 13487.798834                       # average WriteReq miss latency
system.cpu.dcache.WriteReq_mshr_hits::.cpu.data            1                       # number of WriteReq MSHR hits
system.cpu.dcache.WriteReq_mshr_hits::total            1                       # number of WriteReq MSHR hits
system.cpu.dcache.WriteReq_mshr_misses::.cpu.data       741495                       # number of WriteReq MSHR misses
system.cpu.dcache.WriteReq_mshr_misses::total       741495                       # number of WriteReq MSHR misses
system.cpu.dcache.WriteReq_mshr_miss_latency::.cpu.data   9326312904                       # number of WriteReq MSHR miss cycles
system.cpu.dcache.WriteReq_mshr_miss_latency::total   9326312904                       # number of WriteReq MSHR miss cycles
system.cpu.dcache.WriteReq_mshr_miss_rate::.cpu.data     0.337124                       # mshr miss rate for WriteReq accesses
system.cpu.dcache.WriteReq_mshr_miss_rate::total     0.337124                       # mshr miss rate for WriteReq accesses
system.cpu.dcache.WriteReq_avg_mshr_miss_latency::.cpu.data 12577.715162                       # average WriteReq mshr miss latency
system.cpu.dcache.WriteReq_avg_mshr_miss_latency::total 12577.715162                       # average WriteReq mshr miss latency
system.cpu.dcache.power_state.pwrStateResidencyTicks::UNDEFINED  11657133215                       # Cumulative time (in ticks) in various power states
system.cpu.dcache.tags.tagsinuse          1018.266502                       # Cycle average of tags in use
system.cpu.dcache.tags.total_refs             2281157                       # Total number of references to valid blocks.
system.cpu.dcache.tags.sampled_refs            757237                       # Sample count of references to valid blocks.
system.cpu.dcache.tags.avg_refs              3.012474                       # Average number of references to valid blocks.
system.cpu.dcache.tags.warmup_cycle            174720                       # Cycle when the warmup percentage was hit.
system.cpu.dcache.tags.occ_blocks::.cpu.data  1018.266502                       # Average occupied blocks per requestor
system.cpu.dcache.tags.occ_percent::.cpu.data     0.994401                       # Average percentage of cache occupancy
system.cpu.dcache.tags.occ_percent::total     0.994401                       # Average percentage of cache occupancy
system.cpu.dcache.tags.occ_task_id_blocks::1024         1024                       # Occupied blocks per task id
system.cpu.dcache.tags.age_task_id_blocks_1024::0          380                       # Occupied blocks per task id
system.cpu.dcache.tags.age_task_id_blocks_1024::1          644                       # Occupied blocks per task id
system.cpu.dcache.tags.occ_task_id_percent::1024            1                       # Percentage of cache occupancy per task id
system.cpu.dcache.tags.tag_accesses          10131705                       # Number of tag accesses
system.cpu.dcache.tags.data_accesses         10131705                       # Number of data accesses
system.cpu.dcache.tags.power_state.pwrStateResidencyTicks::UNDEFINED  11657133215                       # Cumulative time (in ticks) in various power states
system.cpu.decode.idleCycles                   683842                       # Number of cycles decode is idle
system.cpu.decode.blockedCycles              22626597                       # Number of cycles decode is blocked
system.cpu.decode.runCycles                    708787                       # Number of cycles decode is running
system.cpu.decode.unblockCycles               1558781                       # Number of cycles decode is unblocking
system.cpu.decode.squashCycles                   1238                       # Number of cycles decode is squashing
system.cpu.decode.branchResolved              2269930                       # Number of times decode resolved a  branch
system.cpu.decode.branchMispred                   223                       # Number of times decode detected a branch misprediction
system.cpu.decode.decodedInsts               17866978                       # Number of instructions handled by decode
system.cpu.decode.squashedInsts                   910                       # Number of squashed instructions handled by decode
system.cpu.dtb.rdAccesses                      144397                       # TLB accesses on read requests
system.cpu.dtb.wrAccesses                     2207017                       # TLB accesses on write requests
system.cpu.dtb.rdMisses                           498                       # TLB misses on read requests
system.cpu.dtb.wrMisses                         47839                       # TLB misses on write requests
system.cpu.dtb.walker.power_state.pwrStateResidencyTicks::UNDEFINED  11657133215                       # Cumulative time (in ticks) in various power states
system.cpu.dtb_walker_cache.blocked_cycles::no_mshrs            0                       # number of cycles access was blocked
system.cpu.dtb_walker_cache.blocked_cycles::no_targets            0                       # number of cycles access was blocked
system.cpu.dtb_walker_cache.blocked::no_mshrs            0                       # number of cycles access was blocked
system.cpu.dtb_walker_cache.blocked::no_targets            0                       # number of cycles access was blocked
system.cpu.dtb_walker_cache.avg_blocked_cycles::no_mshrs          nan                       # average number of cycles each access was blocked
system.cpu.dtb_walker_cache.avg_blocked_cycles::no_targets          nan                       # average number of cycles each access was blocked
system.cpu.dtb_walker_cache.replacements            0                       # number of replacements
system.cpu.dtb_walker_cache.power_state.pwrStateResidencyTicks::UNDEFINED  11657133215                       # Cumulative time (in ticks) in various power states
system.cpu.dtb_walker_cache.tags.tagsinuse            0                       # Cycle average of tags in use
system.cpu.dtb_walker_cache.tags.total_refs            0                       # Total number of references to valid blocks.
system.cpu.dtb_walker_cache.tags.sampled_refs            0                       # Sample count of references to valid blocks.
system.cpu.dtb_walker_cache.tags.avg_refs          nan                       # Average number of references to valid blocks.
system.cpu.dtb_walker_cache.tags.warmup_cycle            0                       # Cycle when the warmup percentage was hit.
system.cpu.dtb_walker_cache.tags.tag_accesses            0                       # Number of tag accesses
system.cpu.dtb_walker_cache.tags.data_accesses            0                       # Number of data accesses
system.cpu.dtb_walker_cache.tags.power_state.pwrStateResidencyTicks::UNDEFINED  11657133215                       # Cumulative time (in ticks) in various power states
system.cpu.fetch.icacheStallCycles             147091                       # Number of cycles fetch is stalled on an Icache miss
system.cpu.fetch.insts                       10051271                       # Number of instructions fetch has processed
system.cpu.fetch.branches                     2277367                       # Number of branches that fetch encountered
system.cpu.fetch.predictedBranches            2273220                       # Number of branches that fetch has predicted taken
system.cpu.fetch.cycles                      25429661                       # Number of cycles fetch has run and was not squashing or blocked
system.cpu.fetch.squashCycles                    2904                       # Number of cycles fetch has spent squashing
system.cpu.fetch.miscStallCycles                  146                       # Number of cycles fetch has spent waiting on interrupts,or bad addresses, or out of MSHRs
system.cpu.fetch.pendingTrapStallCycles           860                       # Number of stall cycles due to pending traps
system.cpu.fetch.pendingQuiesceStallCycles            2                       # Number of stall cycles due to pending quiesce instructions
system.cpu.fetch.icacheWaitRetryStallCycles           33                       # Number of stall cycles due to full MSHR
system.cpu.fetch.cacheLines                    130709                       # Number of cache lines fetched
system.cpu.fetch.icacheSquashes                   481                       # Number of outstanding Icache misses that were squashed
system.cpu.fetch.nisnDist::samples           25579245                       # Number of instructions fetched each cycle (Total)
system.cpu.fetch.nisnDist::mean              0.699493                       # Number of instructions fetched each cycle (Total)
system.cpu.fetch.nisnDist::stdev             1.981495                       # Number of instructions fetched each cycle (Total)
system.cpu.fetch.nisnDist::underflows               0      0.00%      0.00% # Number of instructions fetched each cycle (Total)
system.cpu.fetch.nisnDist::0                 22248790     86.98%     86.98% # Number of instructions fetched each cycle (Total)
system.cpu.fetch.nisnDist::1                   345255      1.35%     88.33% # Number of instructions fetched each cycle (Total)
system.cpu.fetch.nisnDist::2                   252362      0.99%     89.32% # Number of instructions fetched each cycle (Total)
system.cpu.fetch.nisnDist::3                   204511      0.80%     90.12% # Number of instructions fetched each cycle (Total)
system.cpu.fetch.nisnDist::4                   251446      0.98%     91.10% # Number of instructions fetched each cycle (Total)
system.cpu.fetch.nisnDist::5                   188953      0.74%     91.84% # Number of instructions fetched each cycle (Total)
system.cpu.fetch.nisnDist::6                   376547      1.47%     93.31% # Number of instructions fetched each cycle (Total)
system.cpu.fetch.nisnDist::7                  1471887      5.75%     99.06% # Number of instructions fetched each cycle (Total)
system.cpu.fetch.nisnDist::8                   239494      0.94%    100.00% # Number of instructions fetched each cycle (Total)
system.cpu.fetch.nisnDist::overflows                0      0.00%    100.00% # Number of instructions fetched each cycle (Total)
system.cpu.fetch.nisnDist::min_value                0                       # Number of instructions fetched each cycle (Total)
system.cpu.fetch.nisnDist::max_value                8                       # Number of instructions fetched each cycle (Total)
system.cpu.fetch.nisnDist::total             25579245                       # Number of instructions fetched each cycle (Total)
system.cpu.fetch.branchRate                  0.088890                       # Number of branch fetches per cycle
system.cpu.fetch.rate                        0.392320                       # Number of inst fetches per cycle
system.cpu.icache.demand_hits::.cpu.inst       130087                       # number of demand (read+write) hits
system.cpu.icache.demand_hits::total           130087                       # number of demand (read+write) hits
system.cpu.icache.overall_hits::.cpu.inst       130087                       # number of overall hits
system.cpu.icache.overall_hits::total          130087                       # number of overall hits
system.cpu.icache.demand_misses::.cpu.inst          622                       # number of demand (read+write) misses
system.cpu.icache.demand_misses::total            622                       # number of demand (read+write) misses
system.cpu.icache.overall_misses::.cpu.inst          622                       # number of overall misses
system.cpu.icache.overall_misses::total           622                       # number of overall misses
system.cpu.icache.demand_miss_latency::.cpu.inst     46818589                       # number of demand (read+write) miss cycles
system.cpu.icache.demand_miss_latency::total     46818589                       # number of demand (read+write) miss cycles
system.cpu.icache.overall_miss_latency::.cpu.inst     46818589                       # number of overall miss cycles
system.cpu.icache.overall_miss_latency::total     46818589                       # number of overall miss cycles
system.cpu.icache.demand_accesses::.cpu.inst       130709                       # number of demand (read+write) accesses
system.cpu.icache.demand_accesses::total       130709                       # number of demand (read+write) accesses
system.cpu.icache.overall_accesses::.cpu.inst       130709                       # number of overall (read+write) accesses
system.cpu.icache.overall_accesses::total       130709                       # number of overall (read+write) accesses
system.cpu.icache.demand_miss_rate::.cpu.inst     0.004759                       # miss rate for demand accesses
system.cpu.icache.demand_miss_rate::total     0.004759                       # miss rate for demand accesses
system.cpu.icache.overall_miss_rate::.cpu.inst     0.004759                       # miss rate for overall accesses
system.cpu.icache.overall_miss_rate::total     0.004759                       # miss rate for overall accesses
system.cpu.icache.demand_avg_miss_latency::.cpu.inst 75271.043408                       # average overall miss latency
system.cpu.icache.demand_avg_miss_latency::total 75271.043408                       # average overall miss latency
system.cpu.icache.overall_avg_miss_latency::.cpu.inst 75271.043408                       # average overall miss latency
system.cpu.icache.overall_avg_miss_latency::total 75271.043408                       # average overall miss latency
system.cpu.icache.blocked_cycles::no_mshrs          522                       # number of cycles access was blocked
system.cpu.icache.blocked_cycles::no_targets            0                       # number of cycles access was blocked
system.cpu.icache.blocked::no_mshrs                 5                       # number of cycles access was blocked
system.cpu.icache.blocked::no_targets               0                       # number of cycles access was blocked
system.cpu.icache.avg_blocked_cycles::no_mshrs   104.400000                       # average number of cycles each access was blocked
system.cpu.icache.avg_blocked_cycles::no_targets          nan                       # average number of cycles each access was blocked
system.cpu.icache.writebacks::.writebacks           24                       # number of writebacks
system.cpu.icache.writebacks::total                24                       # number of writebacks
system.cpu.icache.demand_mshr_hits::.cpu.inst          136                       # number of demand (read+write) MSHR hits
system.cpu.icache.demand_mshr_hits::total          136                       # number of demand (read+write) MSHR hits
system.cpu.icache.overall_mshr_hits::.cpu.inst          136                       # number of overall MSHR hits
system.cpu.icache.overall_mshr_hits::total          136                       # number of overall MSHR hits
system.cpu.icache.demand_mshr_misses::.cpu.inst          486                       # number of demand (read+write) MSHR misses
system.cpu.icache.demand_mshr_misses::total          486                       # number of demand (read+write) MSHR misses
system.cpu.icache.overall_mshr_misses::.cpu.inst          486                       # number of overall MSHR misses
system.cpu.icache.overall_mshr_misses::total          486                       # number of overall MSHR misses
system.cpu.icache.demand_mshr_miss_latency::.cpu.inst     38568984                       # number of demand (read+write) MSHR miss cycles
system.cpu.icache.demand_mshr_miss_latency::total     38568984                       # number of demand (read+write) MSHR miss cycles
system.cpu.icache.overall_mshr_miss_latency::.cpu.inst     38568984                       # number of overall MSHR miss cycles
system.cpu.icache.overall_mshr_miss_latency::total     38568984                       # number of overall MSHR miss cycles
system.cpu.icache.demand_mshr_miss_rate::.cpu.inst     0.003718                       # mshr miss rate for demand accesses
system.cpu.icache.demand_mshr_miss_rate::total     0.003718                       # mshr miss rate for demand accesses
system.cpu.icache.overall_mshr_miss_rate::.cpu.inst     0.003718                       # mshr miss rate for overall accesses
system.cpu.icache.overall_mshr_miss_rate::total     0.003718                       # mshr miss rate for overall accesses
system.cpu.icache.demand_avg_mshr_miss_latency::.cpu.inst 79360.049383                       # average overall mshr miss latency
system.cpu.icache.demand_avg_mshr_miss_latency::total 79360.049383                       # average overall mshr miss latency
system.cpu.icache.overall_avg_mshr_miss_latency::.cpu.inst 79360.049383                       # average overall mshr miss latency
system.cpu.icache.overall_avg_mshr_miss_latency::total 79360.049383                       # average overall mshr miss latency
system.cpu.icache.replacements                     24                       # number of replacements
system.cpu.icache.ReadReq_hits::.cpu.inst       130087                       # number of ReadReq hits
system.cpu.icache.ReadReq_hits::total          130087                       # number of ReadReq hits
system.cpu.icache.ReadReq_misses::.cpu.inst          622                       # number of ReadReq misses
system.cpu.icache.ReadReq_misses::total           622                       # number of ReadReq misses
system.cpu.icache.ReadReq_miss_latency::.cpu.inst     46818589                       # number of ReadReq miss cycles
system.cpu.icache.ReadReq_miss_latency::total     46818589                       # number of ReadReq miss cycles
system.cpu.icache.ReadReq_accesses::.cpu.inst       130709                       # number of ReadReq accesses(hits+misses)
system.cpu.icache.ReadReq_accesses::total       130709                       # number of ReadReq accesses(hits+misses)
system.cpu.icache.ReadReq_miss_rate::.cpu.inst     0.004759                       # miss rate for ReadReq accesses
system.cpu.icache.ReadReq_miss_rate::total     0.004759                       # miss rate for ReadReq accesses
system.cpu.icache.ReadReq_avg_miss_latency::.cpu.inst 75271.043408                       # average ReadReq miss latency
system.cpu.icache.ReadReq_avg_miss_latency::total 75271.043408                       # average ReadReq miss latency
system.cpu.icache.ReadReq_mshr_hits::.cpu.inst          136                       # number of ReadReq MSHR hits
system.cpu.icache.ReadReq_mshr_hits::total          136                       # number of ReadReq MSHR hits
system.cpu.icache.ReadReq_mshr_misses::.cpu.inst          486                       # number of ReadReq MSHR misses
system.cpu.icache.ReadReq_mshr_misses::total          486                       # number of ReadReq MSHR misses
system.cpu.icache.ReadReq_mshr_miss_latency::.cpu.inst     38568984                       # number of ReadReq MSHR miss cycles
system.cpu.icache.ReadReq_mshr_miss_latency::total     38568984                       # number of ReadReq MSHR miss cycles
system.cpu.icache.ReadReq_mshr_miss_rate::.cpu.inst     0.003718                       # mshr miss rate for ReadReq accesses
system.cpu.icache.ReadReq_mshr_miss_rate::total     0.003718                       # mshr miss rate for ReadReq accesses
system.cpu.icache.ReadReq_avg_mshr_miss_latency::.cpu.inst 79360.049383                       # average ReadReq mshr miss latency
system.cpu.icache.ReadReq_avg_mshr_miss_latency::total 79360.049383                       # average ReadReq mshr miss latency
system.cpu.icache.power_state.pwrStateResidencyTicks::UNDEFINED  11657133215                       # Cumulative time (in ticks) in various power states
system.cpu.icache.tags.tagsinuse           418.307217                       # Cycle average of tags in use
system.cpu.icache.tags.total_refs              130572                       # Total number of references to valid blocks.
system.cpu.icache.tags.sampled_refs               485                       # Sample count of references to valid blocks.
system.cpu.icache.tags.avg_refs            269.220619                       # Average number of references to valid blocks.
system.cpu.icache.tags.warmup_cycle             86905                       # Cycle when the warmup percentage was hit.
system.cpu.icache.tags.occ_blocks::.cpu.inst   418.307217                       # Average occupied blocks per requestor
system.cpu.icache.tags.occ_percent::.cpu.inst     0.408503                       # Average percentage of cache occupancy
system.cpu.icache.tags.occ_percent::total     0.408503                       # Average percentage of cache occupancy
system.cpu.icache.tags.occ_task_id_blocks::1024          461                       # Occupied blocks per task id
system.cpu.icache.tags.age_task_id_blocks_1024::0           44                       # Occupied blocks per task id
system.cpu.icache.tags.age_task_id_blocks_1024::2            1                       # Occupied blocks per task id
system.cpu.icache.tags.age_task_id_blocks_1024::4          416                       # Occupied blocks per task id
system.cpu.icache.tags.occ_task_id_percent::1024     0.450195                       # Percentage of cache occupancy per task id
system.cpu.icache.tags.tag_accesses            261903                       # Number of tag accesses
system.cpu.icache.tags.data_accesses           261903                       # Number of data accesses
system.cpu.icache.tags.power_state.pwrStateResidencyTicks::UNDEFINED  11657133215                       # Cumulative time (in ticks) in various power states
system.cpu.interrupts.clk_domain.clock           7280                       # Clock period in ticks
system.cpu.itb.rdAccesses                           0                       # TLB accesses on read requests
system.cpu.itb.wrAccesses                      130860                       # TLB accesses on write requests
system.cpu.itb.rdMisses                             0                       # TLB misses on read requests
system.cpu.itb.wrMisses                           196                       # TLB misses on write requests
system.cpu.itb.walker.power_state.pwrStateResidencyTicks::UNDEFINED  11657133215                       # Cumulative time (in ticks) in various power states
system.cpu.itb_walker_cache.blocked_cycles::no_mshrs            0                       # number of cycles access was blocked
system.cpu.itb_walker_cache.blocked_cycles::no_targets            0                       # number of cycles access was blocked
system.cpu.itb_walker_cache.blocked::no_mshrs            0                       # number of cycles access was blocked
system.cpu.itb_walker_cache.blocked::no_targets            0                       # number of cycles access was blocked
system.cpu.itb_walker_cache.avg_blocked_cycles::no_mshrs          nan                       # average number of cycles each access was blocked
system.cpu.itb_walker_cache.avg_blocked_cycles::no_targets          nan                       # average number of cycles each access was blocked
system.cpu.itb_walker_cache.replacements            0                       # number of replacements
system.cpu.itb_walker_cache.power_state.pwrStateResidencyTicks::UNDEFINED  11657133215                       # Cumulative time (in ticks) in various power states
system.cpu.itb_walker_cache.tags.tagsinuse            0                       # Cycle average of tags in use
system.cpu.itb_walker_cache.tags.total_refs            0                       # Total number of references to valid blocks.
system.cpu.itb_walker_cache.tags.sampled_refs            0                       # Sample count of references to valid blocks.
system.cpu.itb_walker_cache.tags.avg_refs          nan                       # Average number of references to valid blocks.
system.cpu.itb_walker_cache.tags.warmup_cycle            0                       # Cycle when the warmup percentage was hit.
system.cpu.itb_walker_cache.tags.tag_accesses            0                       # Number of tag accesses
system.cpu.itb_walker_cache.tags.data_accesses            0                       # Number of data accesses
system.cpu.itb_walker_cache.tags.power_state.pwrStateResidencyTicks::UNDEFINED  11657133215                       # Cumulative time (in ticks) in various power states
system.cpu.lsq0.forwLoads                         190                       # Number of loads that had data forwarded from stores
system.cpu.lsq0.squashedLoads                    1744                       # Number of loads squashed
system.cpu.lsq0.ignoredResponses                    1                       # Number of memory responses ignored because the instruction is squashed
system.cpu.lsq0.memOrderViolation                  11                       # Number of memory ordering violations
system.cpu.lsq0.squashedStores                   8041                       # Number of stores squashed
system.cpu.lsq0.rescheduledLoads                    0                       # Number of loads that were rescheduled
system.cpu.lsq0.blockedByCache                     15                       # Number of times an access to memory failed due to the cache being blocked
system.cpu.power_state.pwrStateResidencyTicks::ON  11657133215                       # Cumulative time (in ticks) in various power states
system.cpu.rename.squashCycles                   1238                       # Number of cycles rename is squashing
system.cpu.rename.idleCycles                  1170332                       # Number of cycles rename is idle
system.cpu.rename.blockCycles                 6456561                       # Number of cycles rename is blocking
system.cpu.rename.serializeStallCycles             34                       # count of cycles rename stalledfor serializing inst
system.cpu.rename.runCycles                   1765448                       # Number of cycles rename is running
system.cpu.rename.unblockCycles              16185632                       # Number of cycles rename is unblocking
system.cpu.rename.renamedInsts               17863329                       # Number of instructions processed by rename
system.cpu.rename.ROBFullEvents                   752                       # Number of times rename has blocked due to ROB full
system.cpu.rename.IQFullEvents                  46823                       # Number of times rename has blocked due to IQ full
system.cpu.rename.LQFullEvents                      1                       # Number of times rename has blocked due to LQ full
system.cpu.rename.SQFullEvents               15930445                       # Number of times rename has blocked due to SQ full
system.cpu.rename.renamedOperands            22471420                       # Number of destination operands rename has renamed
system.cpu.rename.lookups                    45382008                       # Number of register rename lookups that rename has made
system.cpu.rename.intLookups                 22754501                       # Number of integer rename lookups
system.cpu.rename.fpLookups                   4376754                       # Number of floating rename lookups
system.cpu.rename.committedMaps              22385329                       # Number of HB maps that are committed
system.cpu.rename.undoneMaps                    86085                       # Number of HB maps that are undone due to squashing
system.cpu.rename.serializing                       3                       # count of serializing insts renamed
system.cpu.rename.tempSerializing                   3                       # count of temporary serializing insts renamed
system.cpu.rename.skidInsts                   8381097                       # count of insts added to the skid buffer
system.cpu.rob.reads                         43070799                       # The number of ROB reads
system.cpu.rob.writes                        35726740                       # The number of ROB writes
system.cpu.thread_0.numInsts                  9995921                       # Number of Instructions committed
system.cpu.thread_0.numOps                   17794161                       # Number of Ops committed
system.cpu.thread_0.numMemRefs                      0                       # Number of Memory References
system.cpu_clk_domain.clock                       455                       # Clock period in ticks
system.cpu_voltage_domain.voltage                   1                       # Voltage in Volts
system.l2.demand_hits::.cpu.inst                    4                       # number of demand (read+write) hits
system.l2.demand_hits::.cpu.data               741382                       # number of demand (read+write) hits
system.l2.demand_hits::total                   741386                       # number of demand (read+write) hits
system.l2.overall_hits::.cpu.inst                   4                       # number of overall hits
system.l2.overall_hits::.cpu.data              741382                       # number of overall hits
system.l2.overall_hits::total                  741386                       # number of overall hits
system.l2.demand_misses::.cpu.inst                482                       # number of demand (read+write) misses
system.l2.demand_misses::.cpu.data              15855                       # number of demand (read+write) misses
system.l2.demand_misses::total                  16337                       # number of demand (read+write) misses
system.l2.overall_misses::.cpu.inst               482                       # number of overall misses
system.l2.overall_misses::.cpu.data             15855                       # number of overall misses
system.l2.overall_misses::total                 16337                       # number of overall misses
system.l2.demand_miss_latency::.cpu.inst     37864645                       # number of demand (read+write) miss cycles
system.l2.demand_miss_latency::.cpu.data   1160192670                       # number of demand (read+write) miss cycles
system.l2.demand_miss_latency::total       1198057315                       # number of demand (read+write) miss cycles
system.l2.overall_miss_latency::.cpu.inst     37864645                       # number of overall miss cycles
system.l2.overall_miss_latency::.cpu.data   1160192670                       # number of overall miss cycles
system.l2.overall_miss_latency::total      1198057315                       # number of overall miss cycles
system.l2.demand_accesses::.cpu.inst              486                       # number of demand (read+write) accesses
system.l2.demand_accesses::.cpu.data           757237                       # number of demand (read+write) accesses
system.l2.demand_accesses::total               757723                       # number of demand (read+write) accesses
system.l2.overall_accesses::.cpu.inst             486                       # number of overall (read+write) accesses
system.l2.overall_accesses::.cpu.data          757237                       # number of overall (read+write) accesses
system.l2.overall_accesses::total              757723                       # number of overall (read+write) accesses
system.l2.demand_miss_rate::.cpu.inst        0.991770                       # miss rate for demand accesses
system.l2.demand_miss_rate::.cpu.data        0.020938                       # miss rate for demand accesses
system.l2.demand_miss_rate::total            0.021561                       # miss rate for demand accesses
system.l2.overall_miss_rate::.cpu.inst       0.991770                       # miss rate for overall accesses
system.l2.overall_miss_rate::.cpu.data       0.020938                       # miss rate for overall accesses
system.l2.overall_miss_rate::total           0.021561                       # miss rate for overall accesses
system.l2.demand_avg_miss_latency::.cpu.inst 78557.354772                       # average overall miss latency
system.l2.demand_avg_miss_latency::.cpu.data 73175.192053                       # average overall miss latency
system.l2.demand_avg_miss_latency::total 73333.985126                       # average overall miss latency
system.l2.overall_avg_miss_latency::.cpu.inst 78557.354772                       # average overall miss latency
system.l2.overall_avg_miss_latency::.cpu.data 73175.192053                       # average overall miss latency
system.l2.overall_avg_miss_latency::total 73333.985126                       # average overall miss latency
system.l2.blocked_cycles::no_mshrs                  0                       # number of cycles access was blocked
system.l2.blocked_cycles::no_targets                0                       # number of cycles access was blocked
[...]
system.mem_ctrls.dram.bw_total::.cpu.data     87047131                       # Total bandwidth to/from this memory (bytes/s)
system.mem_ctrls.dram.bw_total::total        89698898                       # Total bandwidth to/from this memory (bytes/s)
system.mem_ctrls.dram.readBursts                16336                       # Number of DRAM read bursts
system.mem_ctrls.dram.writeBursts                   0                       # Number of DRAM write bursts
system.mem_ctrls.dram.perBankRdBursts::0          990                       # Per bank write bursts
system.mem_ctrls.dram.perBankRdBursts::1          990                       # Per bank write bursts
system.mem_ctrls.dram.perBankRdBursts::2          911                       # Per bank write bursts
system.mem_ctrls.dram.perBankRdBursts::3          941                       # Per bank write bursts
system.mem_ctrls.dram.perBankRdBursts::4         1036                       # Per bank write bursts
system.mem_ctrls.dram.perBankRdBursts::5         1029                       # Per bank write bursts
system.mem_ctrls.dram.perBankRdBursts::6         1102                       # Per bank write bursts
system.mem_ctrls.dram.perBankRdBursts::7         1050                       # Per bank write bursts
system.mem_ctrls.dram.perBankRdBursts::8         1053                       # Per bank write bursts
system.mem_ctrls.dram.perBankRdBursts::9         1037                       # Per bank write bursts
system.mem_ctrls.dram.perBankRdBursts::10         1035                       # Per bank write bursts
system.mem_ctrls.dram.perBankRdBursts::11         1063                       # Per bank write bursts
system.mem_ctrls.dram.perBankRdBursts::12         1074                       # Per bank write bursts
system.mem_ctrls.dram.perBankRdBursts::13         1041                       # Per bank write bursts
system.mem_ctrls.dram.perBankRdBursts::14          978                       # Per bank write bursts
system.mem_ctrls.dram.perBankRdBursts::15         1006                       # Per bank write bursts
system.mem_ctrls.dram.perBankWrBursts::0            0                       # Per bank write bursts
system.mem_ctrls.dram.perBankWrBursts::1            0                       # Per bank write bursts
system.mem_ctrls.dram.perBankWrBursts::2            0                       # Per bank write bursts
system.mem_ctrls.dram.perBankWrBursts::3            0                       # Per bank write bursts
system.mem_ctrls.dram.perBankWrBursts::4            0                       # Per bank write bursts
system.mem_ctrls.dram.perBankWrBursts::5            0                       # Per bank write bursts
system.mem_ctrls.dram.perBankWrBursts::6            0                       # Per bank write bursts
system.mem_ctrls.dram.perBankWrBursts::7            0                       # Per bank write bursts
system.mem_ctrls.dram.perBankWrBursts::8            0                       # Per bank write bursts
system.mem_ctrls.dram.perBankWrBursts::9            0                       # Per bank write bursts
system.mem_ctrls.dram.perBankWrBursts::10            0                       # Per bank write bursts
system.mem_ctrls.dram.perBankWrBursts::11            0                       # Per bank write bursts
system.mem_ctrls.dram.perBankWrBursts::12            0                       # Per bank write bursts
system.mem_ctrls.dram.perBankWrBursts::13            0                       # Per bank write bursts
system.mem_ctrls.dram.perBankWrBursts::14            0                       # Per bank write bursts
system.mem_ctrls.dram.perBankWrBursts::15            0                       # Per bank write bursts
system.mem_ctrls.dram.totQLat                78543335                       # Total ticks spent queuing
system.mem_ctrls.dram.totBusLat              81680000                       # Total ticks spent in databus transfers
system.mem_ctrls.dram.totMemAccLat          384843335                       # Total ticks spent from burst creation until serviced by the DRAM
system.mem_ctrls.dram.avgQLat                 4807.99                       # Average queueing delay per DRAM burst
system.mem_ctrls.dram.avgBusLat               5000.00                       # Average bus latency per DRAM burst
system.mem_ctrls.dram.avgMemAccLat           23557.99                       # Average memory access latency per DRAM burst
system.mem_ctrls.dram.readRowHits               15019                       # Number of row buffer hits during reads
system.mem_ctrls.dram.writeRowHits                  0                       # Number of row buffer hits during writes
system.mem_ctrls.dram.readRowHitRate            91.94                       # Row buffer hit rate for reads
system.mem_ctrls.dram.writeRowHitRate             nan                       # Row buffer hit rate for writes
system.mem_ctrls.dram.bytesPerActivate::samples         1314                       # Bytes accessed per row activation
system.mem_ctrls.dram.bytesPerActivate::mean   794.837139                       # Bytes accessed per row activation
system.mem_ctrls.dram.bytesPerActivate::gmean   637.338696                       # Bytes accessed per row activation
system.mem_ctrls.dram.bytesPerActivate::stdev   343.412576                       # Bytes accessed per row activation
system.mem_ctrls.dram.bytesPerActivate::0-127           96      7.31%      7.31% # Bytes accessed per row activation
system.mem_ctrls.dram.bytesPerActivate::128-255           90      6.85%     14.16% # Bytes accessed per row activation
system.mem_ctrls.dram.bytesPerActivate::256-383           49      3.73%     17.88% # Bytes accessed per row activation
system.mem_ctrls.dram.bytesPerActivate::384-511           43      3.27%     21.16% # Bytes accessed per row activation
system.mem_ctrls.dram.bytesPerActivate::512-639           39      2.97%     24.12% # Bytes accessed per row activation
system.mem_ctrls.dram.bytesPerActivate::640-767          119      9.06%     33.18% # Bytes accessed per row activation
system.mem_ctrls.dram.bytesPerActivate::768-895           32      2.44%     35.62% # Bytes accessed per row activation
system.mem_ctrls.dram.bytesPerActivate::896-1023           28      2.13%     37.75% # Bytes accessed per row activation
system.mem_ctrls.dram.bytesPerActivate::1024-1151          818     62.25%    100.00% # Bytes accessed per row activation
system.mem_ctrls.dram.bytesPerActivate::total         1314                       # Bytes accessed per row activation
system.mem_ctrls.dram.bytesRead               1045504                       # Total number of bytes read from DRAM
system.mem_ctrls.dram.bytesWritten                  0                       # Total number of bytes written to DRAM
system.mem_ctrls.dram.avgRdBW               89.687917                       # Average DRAM read bandwidth in MiBytes/s
system.mem_ctrls.dram.avgWrBW                       0                       # Average DRAM write bandwidth in MiBytes/s
system.mem_ctrls.dram.peakBW                 12800.00                       # Theoretical peak bandwidth in MiByte/s
system.mem_ctrls.dram.busUtil                    0.70                       # Data bus utilization in percentage
system.mem_ctrls.dram.busUtilRead                0.70                       # Data bus utilization in percentage for reads
system.mem_ctrls.dram.busUtilWrite               0.00                       # Data bus utilization in percentage for writes
system.mem_ctrls.dram.pageHitRate               91.94                       # Row buffer hit rate, read and write combined
system.mem_ctrls.dram.power_state.pwrStateResidencyTicks::UNDEFINED  11657133215                       # Cumulative time (in ticks) in various power states
system.mem_ctrls.dram.rank0.actEnergy         4712400                       # Energy for activate commands per rank (pJ)
system.mem_ctrls.dram.rank0.preEnergy         2500905                       # Energy for precharge commands per rank (pJ)
system.mem_ctrls.dram.rank0.readEnergy       57469860                       # Energy for read commands per rank (pJ)
system.mem_ctrls.dram.rank0.writeEnergy             0                       # Energy for write commands per rank (pJ)
system.mem_ctrls.dram.rank0.refreshEnergy 920116080.000000                       # Energy for refresh commands per rank (pJ)
system.mem_ctrls.dram.rank0.actBackEnergy    534694770                       # Energy for active background per rank (pJ)
system.mem_ctrls.dram.rank0.preBackEnergy   4026070080                       # Energy for precharge background per rank (pJ)
system.mem_ctrls.dram.rank0.actPowerDownEnergy            0                       # Energy for active power-down per rank (pJ)
system.mem_ctrls.dram.rank0.prePowerDownEnergy            0                       # Energy for precharge power-down per rank (pJ)
system.mem_ctrls.dram.rank0.selfRefreshEnergy            0                       # Energy for self refresh per rank (pJ)
system.mem_ctrls.dram.rank0.totalEnergy    5545564095                       # Total energy per rank (pJ)
system.mem_ctrls.dram.rank0.averagePower   475.722804                       # Core power per rank (mW)
system.mem_ctrls.dram.rank0.totalIdleTime            0                       # Total Idle time Per DRAM Rank
system.mem_ctrls.dram.rank0.pwrStateTime::IDLE  10458271155                       # Time in different power states
system.mem_ctrls.dram.rank0.pwrStateTime::REF    389220000                       # Time in different power states
system.mem_ctrls.dram.rank0.pwrStateTime::SREF            0                       # Time in different power states
system.mem_ctrls.dram.rank0.pwrStateTime::PRE_PDN            0                       # Time in different power states
system.mem_ctrls.dram.rank0.pwrStateTime::ACT    809642060                       # Time in different power states
system.mem_ctrls.dram.rank0.pwrStateTime::ACT_PDN            0                       # Time in different power states
system.mem_ctrls.dram.rank1.actEnergy         4690980                       # Energy for activate commands per rank (pJ)
system.mem_ctrls.dram.rank1.preEnergy         2485725                       # Energy for precharge commands per rank (pJ)
system.mem_ctrls.dram.rank1.readEnergy       59169180                       # Energy for read commands per rank (pJ)
system.mem_ctrls.dram.rank1.writeEnergy             0                       # Energy for write commands per rank (pJ)
system.mem_ctrls.dram.rank1.refreshEnergy 920116080.000000                       # Energy for refresh commands per rank (pJ)
system.mem_ctrls.dram.rank1.actBackEnergy    546967440                       # Energy for active background per rank (pJ)
system.mem_ctrls.dram.rank1.preBackEnergy   4015735200                       # Energy for precharge background per rank (pJ)
system.mem_ctrls.dram.rank1.actPowerDownEnergy            0                       # Energy for active power-down per rank (pJ)
system.mem_ctrls.dram.rank1.prePowerDownEnergy            0                       # Energy for precharge power-down per rank (pJ)
system.mem_ctrls.dram.rank1.selfRefreshEnergy            0                       # Energy for self refresh per rank (pJ)
system.mem_ctrls.dram.rank1.totalEnergy    5549164605                       # Total energy per rank (pJ)
system.mem_ctrls.dram.rank1.averagePower   476.031671                       # Core power per rank (mW)
system.mem_ctrls.dram.rank1.totalIdleTime            0                       # Total Idle time Per DRAM Rank
system.mem_ctrls.dram.rank1.pwrStateTime::IDLE  10431107285                       # Time in different power states
system.mem_ctrls.dram.rank1.pwrStateTime::REF    389220000                       # Time in different power states
system.mem_ctrls.dram.rank1.pwrStateTime::SREF            0                       # Time in different power states
system.mem_ctrls.dram.rank1.pwrStateTime::PRE_PDN            0                       # Time in different power states
system.mem_ctrls.dram.rank1.pwrStateTime::ACT    836805930                       # Time in different power states
system.mem_ctrls.dram.rank1.pwrStateTime::ACT_PDN            0                       # Time in different power states
system.mem_ctrls.power_state.pwrStateResidencyTicks::UNDEFINED  11657133215                       # Cumulative time (in ticks) in various power states
system.membus.trans_dist::ReadResp                606                       # Transaction distribution
system.membus.trans_dist::WritebackDirty            2                       # Transaction distribution
system.membus.trans_dist::ReadExReq             15730                       # Transaction distribution
system.membus.trans_dist::ReadExResp            15730                       # Transaction distribution
system.membus.trans_dist::ReadSharedReq           606                       # Transaction distribution
system.membus.pkt_count_system.l2.mem_side_port::system.mem_ctrls.port        32674                       # Packet count per connected requestor and responder (bytes)
system.membus.pkt_count_system.l2.mem_side_port::total        32674                       # Packet count per connected requestor and responder (bytes)
system.membus.pkt_count::total                  32674                       # Packet count per connected requestor and responder (bytes)
system.membus.pkt_size_system.l2.mem_side_port::system.mem_ctrls.port      1045632                       # Cumulative packet size per connected requestor and responder (bytes)
system.membus.pkt_size_system.l2.mem_side_port::total      1045632                       # Cumulative packet size per connected requestor and responder (bytes)
system.membus.pkt_size::total                 1045632                       # Cumulative packet size per connected requestor and responder (bytes)
system.membus.snoops                                0                       # Total snoops (count)
system.membus.snoopTraffic                          0                       # Total snoop traffic (bytes)
system.membus.snoop_fanout::samples             16336                       # Request fanout histogram
system.membus.snoop_fanout::mean                    0                       # Request fanout histogram
system.membus.snoop_fanout::stdev                   0                       # Request fanout histogram
system.membus.snoop_fanout::underflows              0      0.00%      0.00% # Request fanout histogram
system.membus.snoop_fanout::0                   16336    100.00%    100.00% # Request fanout histogram
system.membus.snoop_fanout::1                       0      0.00%    100.00% # Request fanout histogram
system.membus.snoop_fanout::overflows               0      0.00%    100.00% # Request fanout histogram
system.membus.snoop_fanout::min_value               0                       # Request fanout histogram
system.membus.snoop_fanout::max_value               0                       # Request fanout histogram
system.membus.snoop_fanout::total               16336                       # Request fanout histogram
system.membus.power_state.pwrStateResidencyTicks::UNDEFINED  11657133215                       # Cumulative time (in ticks) in various power states
system.membus.reqLayer2.occupancy            26502930                       # Layer occupancy (ticks)
system.membus.reqLayer2.utilization               0.2                       # Layer utilization (%)
system.membus.respLayer1.occupancy           86108940                       # Layer occupancy (ticks)
system.membus.respLayer1.utilization              0.7                       # Layer utilization (%)
system.tol2bus.trans_dist::ReadResp             16227                       # Transaction distribution
system.tol2bus.trans_dist::WritebackDirty       756131                       # Transaction distribution
system.tol2bus.trans_dist::WritebackClean           24                       # Transaction distribution
system.tol2bus.trans_dist::CleanEvict             501                       # Transaction distribution
system.tol2bus.trans_dist::ReadExReq           741495                       # Transaction distribution
system.tol2bus.trans_dist::ReadExResp          741495                       # Transaction distribution
system.tol2bus.trans_dist::ReadCleanReq           486                       # Transaction distribution
system.tol2bus.trans_dist::ReadSharedReq        15742                       # Transaction distribution
system.tol2bus.pkt_count_system.cpu.icache.mem_side_port::system.l2.cpu_side_port          995                       # Packet count per connected requestor and responder (bytes)
system.tol2bus.pkt_count_system.cpu.dcache.mem_side_port::system.l2.cpu_side_port      2270687                       # Packet count per connected requestor and responder (bytes)
system.tol2bus.pkt_count::total               2271682                       # Packet count per connected requestor and responder (bytes)
system.tol2bus.pkt_size_system.cpu.icache.mem_side_port::system.l2.cpu_side_port        32576                       # Cumulative packet size per connected requestor and responder (bytes)
system.tol2bus.pkt_size_system.cpu.dcache.mem_side_port::system.l2.cpu_side_port     96855424                       # Cumulative packet size per connected requestor and responder (bytes)
system.tol2bus.pkt_size::total               96888000                       # Cumulative packet size per connected requestor and responder (bytes)
system.tol2bus.snoops                             419                       # Total snoops (count)
system.tol2bus.snoopTraffic                       128                       # Total snoop traffic (bytes)
system.tol2bus.snoop_fanout::samples           758142                       # Request fanout histogram
system.tol2bus.snoop_fanout::mean            0.000550                       # Request fanout histogram
system.tol2bus.snoop_fanout::stdev           0.023446                       # Request fanout histogram
system.tol2bus.snoop_fanout::underflows             0      0.00%      0.00% # Request fanout histogram
system.tol2bus.snoop_fanout::0                 757725     99.94%     99.94% # Request fanout histogram
system.tol2bus.snoop_fanout::1                    417      0.06%    100.00% # Request fanout histogram
system.tol2bus.snoop_fanout::2                      0      0.00%    100.00% # Request fanout histogram
system.tol2bus.snoop_fanout::3                      0      0.00%    100.00% # Request fanout histogram
system.tol2bus.snoop_fanout::4                      0      0.00%    100.00% # Request fanout histogram
system.tol2bus.snoop_fanout::overflows              0      0.00%    100.00% # Request fanout histogram
system.tol2bus.snoop_fanout::min_value              0                       # Request fanout histogram
system.tol2bus.snoop_fanout::max_value              1                       # Request fanout histogram
system.tol2bus.snoop_fanout::total             758142                       # Request fanout histogram
system.tol2bus.power_state.pwrStateResidencyTicks::UNDEFINED  11657133215                       # Cumulative time (in ticks) in various power states
system.tol2bus.reqLayer0.occupancy         1376951030                       # Layer occupancy (ticks)
system.tol2bus.reqLayer0.utilization             11.8                       # Layer utilization (%)
system.tol2bus.respLayer0.occupancy            662025                       # Layer occupancy (ticks)
system.tol2bus.respLayer0.utilization             0.0                       # Layer utilization (%)
system.tol2bus.respLayer1.occupancy        1033628505                       # Layer occupancy (ticks)
system.tol2bus.respLayer1.utilization             8.9                       # Layer utilization (%)
system.voltage_domain.voltage                       1                       # Voltage in Volts

---------- End Simulation Statistics   ----------
