
---------- Begin Simulation Statistics ----------
final_tick                                13028214500                       # Number of ticks from beginning of simulation (restored from checkpoints and never reset)
host_inst_rate                                 142785                       # Simulator instruction rate (inst/s)
host_mem_usage                                 656884                       # Number of bytes of host memory used
host_op_rate                                   254178                       # Simulator op (including micro ops) rate (op/s)
host_seconds                                    70.01                       # Real time elapsed on the host
host_tick_rate                              186099225                       # Simulator tick rate (ticks/s)
sim_freq                                 1000000000000                       # Frequency of simulated ticks
sim_insts                                     9995921                       # Number of instructions simulated
sim_ops                                      17794161                       # Number of ops (including micro ops) simulated
sim_seconds                                  0.013028                       # Number of seconds simulated
sim_ticks                                 13028214500                       # Number of ticks simulated
system.cpu.cc_regfile_reads                  11359408                       # number of cc regfile reads
system.cpu.cc_regfile_writes                  9085642                       # number of cc regfile writes
system.cpu.committedInsts                     9995921                       # Number of Instructions Simulated
system.cpu.committedOps                      17794161                       # Number of Ops (including micro ops) Simulated
system.cpu.cpi                               2.606706                       # CPI: Cycles Per Instruction
system.cpu.cpi_total                         2.606706                       # CPI: Total CPI of All Threads
system.cpu.fp_regfile_reads                   4376526                       # number of floating regfile reads
system.cpu.fp_regfile_writes                  2000718                       # number of floating regfile writes
system.cpu.idleCycles                           38346                       # Total number of cycles that the CPU has spent unscheduled due to idling
system.cpu.iew.branchMispredicts                 1094                       # Number of branch mispredicts detected at execute
system.cpu.iew.exec_branches                  2272083                       # Number of branches executed
system.cpu.iew.exec_nop                             0                       # number of nop insts executed
system.cpu.iew.exec_rate                     0.685293                       # Inst execution rate
system.cpu.iew.exec_refs                      2335966                       # number of memory reference insts executed
system.cpu.iew.exec_stores                    2207015                       # Number of stores executed
system.cpu.iew.exec_swp                             0                       # number of swp insts executed
system.cpu.iew.iewBlockCycles                  149905                       # Number of cycles IEW is blocking
system.cpu.iew.iewDispLoadInsts                129411                       # Number of dispatched load instructions
system.cpu.iew.iewDispNonSpecInsts                 17                       # Number of dispatched non-speculative instructions
system.cpu.iew.iewDispSquashedInsts                21                       # Number of squashed instructions skipped by dispatch
system.cpu.iew.iewDispStoreInsts              2207521                       # Number of dispatched store instructions
system.cpu.iew.iewDispatchedInsts            17861354                       # Number of instructions dispatched to IQ
system.cpu.iew.iewExecLoadInsts                128951                       # Number of load instructions executed
system.cpu.iew.iewExecSquashedInsts              1154                       # Number of squashed instructions skipped in execute
system.cpu.iew.iewExecutedInsts              17856297                       # Number of executed instructions
system.cpu.iew.iewIQFullEvents                  31223                       # Number of times the IQ has become full, causing a stall
system.cpu.iew.iewIdleCycles                        0                       # Number of cycles IEW is idle
system.cpu.iew.iewLSQFullEvents               6523215                       # Number of times the LSQ has become full, causing a stall
system.cpu.iew.iewSquashCycles                   1224                       # Number of cycles IEW is squashing
system.cpu.iew.iewUnblockCycles               6569974                       # Number of cycles IEW is unblocking
system.cpu.iew.memOrderViolationEvents             11                       # Number of memory order violations
system.cpu.iew.predictedNotTakenIncorrect          726                       # Number of branches that were predicted not taken incorrectly
system.cpu.iew.predictedTakenIncorrect            368                       # Number of branches that were predicted taken incorrectly
system.cpu.iew.wb_consumers                  18132829                       # num instructions consuming a value
system.cpu.iew.wb_count                      17848687                       # cumulative count of insts written-back
system.cpu.iew.wb_fanout                     0.656520                       # average fanout of values written-back
system.cpu.iew.wb_producers                  11904567                       # num instructions producing a value
system.cpu.iew.wb_rate                       0.685001                       # insts written-back per cycle
system.cpu.iew.wb_sent                       17855872                       # cumulative count of insts sent to commit
system.cpu.int_regfile_reads                 22742094                       # number of integer regfile reads
system.cpu.int_regfile_writes                11376641                       # number of integer regfile writes
system.cpu.ipc                               0.383626                       # IPC: Instructions Per Cycle
system.cpu.ipc_total                         0.383626                       # IPC: Total IPC of All Threads
system.cpu.iq.FU_type_0::No_OpClass               774      0.00%      0.00% # Type of FU issued
system.cpu.iq.FU_type_0::IntAlu              14018487     78.50%     78.51% # Type of FU issued
system.cpu.iq.FU_type_0::IntMult                 1319      0.01%     78.51% # Type of FU issued
system.cpu.iq.FU_type_0::IntDiv                    28      0.00%     78.51% # Type of FU issued
system.cpu.iq.FU_type_0::FloatAdd                 145      0.00%     78.51% # Type of FU issued
system.cpu.iq.FU_type_0::FloatCmp                   0      0.00%     78.51% # Type of FU issued
system.cpu.iq.FU_type_0::FloatCvt                   0      0.00%     78.51% # Type of FU issued
system.cpu.iq.FU_type_0::FloatMult                  0      0.00%     78.51% # Type of FU issued
system.cpu.iq.FU_type_0::FloatMultAcc               0      0.00%     78.51% # Type of FU issued
system.cpu.iq.FU_type_0::FloatDiv                   0      0.00%     78.51% # Type of FU issued
system.cpu.iq.FU_type_0::FloatMisc                  0      0.00%     78.51% # Type of FU issued
system.cpu.iq.FU_type_0::FloatSqrt                  0      0.00%     78.51% # Type of FU issued
system.cpu.iq.FU_type_0::SimdAdd               499996      2.80%     81.31% # Type of FU issued
system.cpu.iq.FU_type_0::SimdAddAcc                 0      0.00%     81.31% # Type of FU issued
system.cpu.iq.FU_type_0::SimdAlu               125172      0.70%     82.02% # Type of FU issued
system.cpu.iq.FU_type_0::SimdCmp                    0      0.00%     82.02% # Type of FU issued
system.cpu.iq.FU_type_0::SimdCvt               125046      0.70%     82.72% # Type of FU issued
system.cpu.iq.FU_type_0::SimdMisc              750207      4.20%     86.92% # Type of FU issued
system.cpu.iq.FU_type_0::SimdMult                   0      0.00%     86.92% # Type of FU issued
system.cpu.iq.FU_type_0::SimdMultAcc                0      0.00%     86.92% # Type of FU issued
system.cpu.iq.FU_type_0::SimdShift                 13      0.00%     86.92% # Type of FU issued
system.cpu.iq.FU_type_0::SimdShiftAcc               0      0.00%     86.92% # Type of FU issued
system.cpu.iq.FU_type_0::SimdDiv                    0      0.00%     86.92% # Type of FU issued
system.cpu.iq.FU_type_0::SimdSqrt                   0      0.00%     86.92% # Type of FU issued
system.cpu.iq.FU_type_0::SimdFloatAdd               0      0.00%     86.92% # Type of FU issued
system.cpu.iq.FU_type_0::SimdFloatAlu               0      0.00%     86.92% # Type of FU issued
system.cpu.iq.FU_type_0::SimdFloatCmp               0      0.00%     86.92% # Type of FU issued
system.cpu.iq.FU_type_0::SimdFloatCvt               0      0.00%     86.92% # Type of FU issued
system.cpu.iq.FU_type_0::SimdFloatDiv               0      0.00%     86.92% # Type of FU issued
system.cpu.iq.FU_type_0::SimdFloatMisc              0      0.00%     86.92% # Type of FU issued
system.cpu.iq.FU_type_0::SimdFloatMult              0      0.00%     86.92% # Type of FU issued
system.cpu.iq.FU_type_0::SimdFloatMultAcc            0      0.00%     86.92% # Type of FU issued
system.cpu.iq.FU_type_0::SimdFloatSqrt              0      0.00%     86.92% # Type of FU issued
system.cpu.iq.FU_type_0::SimdReduceAdd              0      0.00%     86.92% # Type of FU issued
system.cpu.iq.FU_type_0::SimdReduceAlu              0      0.00%     86.92% # Type of FU issued
system.cpu.iq.FU_type_0::SimdReduceCmp              0      0.00%     86.92% # Type of FU issued
system.cpu.iq.FU_type_0::SimdFloatReduceAdd            0      0.00%     86.92% # Type of FU issued
system.cpu.iq.FU_type_0::SimdFloatReduceCmp            0      0.00%     86.92% # Type of FU issued
system.cpu.iq.FU_type_0::SimdAes                    0      0.00%     86.92% # Type of FU issued
system.cpu.iq.FU_type_0::SimdAesMix                 0      0.00%     86.92% # Type of FU issued
system.cpu.iq.FU_type_0::SimdSha1Hash               0      0.00%     86.92% # Type of FU issued
system.cpu.iq.FU_type_0::SimdSha1Hash2              0      0.00%     86.92% # Type of FU issued
system.cpu.iq.FU_type_0::SimdSha256Hash             0      0.00%     86.92% # Type of FU issued
system.cpu.iq.FU_type_0::SimdSha256Hash2            0      0.00%     86.92% # Type of FU issued
system.cpu.iq.FU_type_0::SimdShaSigma2              0      0.00%     86.92% # Type of FU issued
system.cpu.iq.FU_type_0::SimdShaSigma3              0      0.00%     86.92% # Type of FU issued
system.cpu.iq.FU_type_0::SimdPredAlu                0      0.00%     86.92% # Type of FU issued
system.cpu.iq.FU_type_0::MemRead                 4087      0.02%     86.94% # Type of FU issued
system.cpu.iq.FU_type_0::MemWrite             2206585     12.36%     99.30% # Type of FU issued
system.cpu.iq.FU_type_0::FloatMemRead          125064      0.70%    100.00% # Type of FU issued
system.cpu.iq.FU_type_0::FloatMemWrite            528      0.00%    100.00% # Type of FU issued
system.cpu.iq.FU_type_0::IprAccess                  0      0.00%    100.00% # Type of FU issued
system.cpu.iq.FU_type_0::InstPrefetch               0      0.00%    100.00% # Type of FU issued
system.cpu.iq.FU_type_0::total               17857451                       # Type of FU issued
system.cpu.iq.fp_alu_accesses                 2282342                       # Number of floating point alu accesses
system.cpu.iq.fp_inst_queue_reads             4283657                       # Number of floating instruction queue reads
system.cpu.iq.fp_inst_queue_wakeup_accesses      2001285                       # Number of floating instruction queue wakeup accesses
system.cpu.iq.fp_inst_queue_writes            2001626                       # Number of floating instruction queue writes
system.cpu.iq.fu_busy_cnt                      336181                       # FU busy when requested
system.cpu.iq.fu_busy_rate                   0.018826                       # FU busy rate (busy events/executed inst)
system.cpu.iq.fu_full::No_OpClass                   0      0.00%      0.00% # attempts to use FU when none available
system.cpu.iq.fu_full::IntAlu                   55092     16.39%     16.39% # attempts to use FU when none available
system.cpu.iq.fu_full::IntMult                      0      0.00%     16.39% # attempts to use FU when none available
system.cpu.iq.fu_full::IntDiv                       0      0.00%     16.39% # attempts to use FU when none available
system.cpu.iq.fu_full::FloatAdd                     0      0.00%     16.39% # attempts to use FU when none available
system.cpu.iq.fu_full::FloatCmp                     0      0.00%     16.39% # attempts to use FU when none available
system.cpu.iq.fu_full::FloatCvt                     0      0.00%     16.39% # attempts to use FU when none available
system.cpu.iq.fu_full::FloatMult                    0      0.00%     16.39% # attempts to use FU when none available
system.cpu.iq.fu_full::FloatMultAcc                 0      0.00%     16.39% # attempts to use FU when none available
system.cpu.iq.fu_full::FloatDiv                     0      0.00%     16.39% # attempts to use FU when none available
system.cpu.iq.fu_full::FloatMisc                    0      0.00%     16.39% # attempts to use FU when none available
system.cpu.iq.fu_full::FloatSqrt                    0      0.00%     16.39% # attempts to use FU when none available
system.cpu.iq.fu_full::SimdAdd                      0      0.00%     16.39% # attempts to use FU when none available
system.cpu.iq.fu_full::SimdAddAcc                   0      0.00%     16.39% # attempts to use FU when none available
system.cpu.iq.fu_full::SimdAlu                  93668     27.86%     44.25% # attempts to use FU when none available
system.cpu.iq.fu_full::SimdCmp                      0      0.00%     44.25% # attempts to use FU when none available
system.cpu.iq.fu_full::SimdCvt                 124880     37.15%     81.40% # attempts to use FU when none available
system.cpu.iq.fu_full::SimdMisc                 62476     18.58%     99.98% # attempts to use FU when none available
system.cpu.iq.fu_full::SimdMult                     0      0.00%     99.98% # attempts to use FU when none available
system.cpu.iq.fu_full::SimdMultAcc                  0      0.00%     99.98% # attempts to use FU when none available
system.cpu.iq.fu_full::SimdShift                    0      0.00%     99.98% # attempts to use FU when none available
system.cpu.iq.fu_full::SimdShiftAcc                 0      0.00%     99.98% # attempts to use FU when none available
system.cpu.iq.fu_full::SimdDiv                      0      0.00%     99.98% # attempts to use FU when none available
system.cpu.iq.fu_full::SimdSqrt                     0      0.00%     99.98% # attempts to use FU when none available
system.cpu.iq.fu_full::SimdFloatAdd                 0      0.00%     99.98% # attempts to use FU when none available
system.cpu.iq.fu_full::SimdFloatAlu                 0      0.00%     99.98% # attempts to use FU when none available
system.cpu.iq.fu_full::SimdFloatCmp                 0      0.00%     99.98% # attempts to use FU when none available
system.cpu.iq.fu_full::SimdFloatCvt                 0      0.00%     99.98% # attempts to use FU when none available
system.cpu.iq.fu_full::SimdFloatDiv                 0      0.00%     99.98% # attempts to use FU when none available
system.cpu.iq.fu_full::SimdFloatMisc                0      0.00%     99.98% # attempts to use FU when none available
system.cpu.iq.fu_full::SimdFloatMult                0      0.00%     99.98% # attempts to use FU when none available
system.cpu.iq.fu_full::SimdFloatMultAcc             0      0.00%     99.98% # attempts to use FU when none available
system.cpu.iq.fu_full::SimdFloatSqrt                0      0.00%     99.98% # attempts to use FU when none available
system.cpu.iq.fu_full::SimdReduceAdd                0      0.00%     99.98% # attempts to use FU when none available
system.cpu.iq.fu_full::SimdReduceAlu                0      0.00%     99.98% # attempts to use FU when none available
system.cpu.iq.fu_full::SimdReduceCmp                0      0.00%     99.98% # attempts to use FU when none available
system.cpu.iq.fu_full::SimdFloatReduceAdd            0      0.00%     99.98% # attempts to use FU when none available
system.cpu.iq.fu_full::SimdFloatReduceCmp            0      0.00%     99.98% # attempts to use FU when none available
system.cpu.iq.fu_full::SimdAes                      0      0.00%     99.98% # attempts to use FU when none available
system.cpu.iq.fu_full::SimdAesMix                   0      0.00%     99.98% # attempts to use FU when none available
system.cpu.iq.fu_full::SimdSha1Hash                 0      0.00%     99.98% # attempts to use FU when none available
system.cpu.iq.fu_full::SimdSha1Hash2                0      0.00%     99.98% # attempts to use FU when none available
system.cpu.iq.fu_full::SimdSha256Hash               0      0.00%     99.98% # attempts to use FU when none available
system.cpu.iq.fu_full::SimdSha256Hash2              0      0.00%     99.98% # attempts to use FU when none available
system.cpu.iq.fu_full::SimdShaSigma2                0      0.00%     99.98% # attempts to use FU when none available
system.cpu.iq.fu_full::SimdShaSigma3                0      0.00%     99.98% # attempts to use FU when none available
system.cpu.iq.fu_full::SimdPredAlu                  0      0.00%     99.98% # attempts to use FU when none available
system.cpu.iq.fu_full::MemRead                     35      0.01%     99.99% # attempts to use FU when none available
system.cpu.iq.fu_full::MemWrite                    21      0.01%    100.00% # attempts to use FU when none available
system.cpu.iq.fu_full::FloatMemRead                 2      0.00%    100.00% # attempts to use FU when none available
system.cpu.iq.fu_full::FloatMemWrite                7      0.00%    100.00% # attempts to use FU when none available
system.cpu.iq.fu_full::IprAccess                    0      0.00%    100.00% # attempts to use FU when none available
system.cpu.iq.fu_full::InstPrefetch                 0      0.00%    100.00% # attempts to use FU when none available
system.cpu.iq.int_alu_accesses               15910516                       # Number of integer alu accesses
system.cpu.iq.int_inst_queue_reads           57785583                       # Number of integer instruction queue reads
system.cpu.iq.int_inst_queue_wakeup_accesses     15847402                       # Number of integer instruction queue wakeup accesses
system.cpu.iq.int_inst_queue_writes          15926925                       # Number of integer instruction queue writes
system.cpu.iq.iqInstsAdded                   17861305                       # Number of instructions added to the IQ (excludes non-spec)
system.cpu.iq.iqInstsIssued                  17857451                       # Number of instructions issued
system.cpu.iq.iqNonSpecInstsAdded                  49                       # Number of non-speculative instructions added to the IQ
system.cpu.iq.iqSquashedInstsExamined           67187                       # Number of squashed instructions iterated over during squash; mainly for profiling
system.cpu.iq.iqSquashedInstsIssued                73                       # Number of squashed instructions issued
system.cpu.iq.iqSquashedNonSpecRemoved             37                       # Number of squashed non-spec instructions that were removed
system.cpu.iq.iqSquashedOperandsExamined        45909                       # Number of squashed operands that are examined and possibly removed from graph
system.cpu.iq.issued_per_cycle::samples      26018084                       # Number of insts issued each cycle
system.cpu.iq.issued_per_cycle::mean         0.686348                       # Number of insts issued each cycle
system.cpu.iq.issued_per_cycle::stdev        1.515620                       # Number of insts issued each cycle
system.cpu.iq.issued_per_cycle::underflows            0      0.00%      0.00% # Number of insts issued each cycle
system.cpu.iq.issued_per_cycle::0            20366192     78.28%     78.28% # Number of insts issued each cycle
system.cpu.iq.issued_per_cycle::1             1004637      3.86%     82.14% # Number of insts issued each cycle
system.cpu.iq.issued_per_cycle::2             1571542      6.04%     88.18% # Number of insts issued each cycle
system.cpu.iq.issued_per_cycle::3              604925      2.33%     90.50% # Number of insts issued each cycle
system.cpu.iq.issued_per_cycle::4             1038839      3.99%     94.50% # Number of insts issued each cycle
system.cpu.iq.issued_per_cycle::5             1018229      3.91%     98.41% # Number of insts issued each cycle
system.cpu.iq.issued_per_cycle::6              325951      1.25%     99.66% # Number of insts issued each cycle
system.cpu.iq.issued_per_cycle::7                9404      0.04%     99.70% # Number of insts issued each cycle
system.cpu.iq.issued_per_cycle::8               78365      0.30%    100.00% # Number of insts issued each cycle
system.cpu.iq.issued_per_cycle::overflows            0      0.00%    100.00% # Number of insts issued each cycle
system.cpu.iq.issued_per_cycle::min_value            0                       # Number of insts issued each cycle
system.cpu.iq.issued_per_cycle::max_value            8                       # Number of insts issued each cycle
system.cpu.iq.issued_per_cycle::total        26018084                       # Number of insts issued each cycle
system.cpu.iq.rate                           0.685338                       # Inst issue rate
system.cpu.iq.vec_alu_accesses                      0                       # Number of vector alu accesses
system.cpu.iq.vec_inst_queue_reads                  0                       # Number of vector instruction queue reads
system.cpu.iq.vec_inst_queue_wakeup_accesses            0                       # Number of vector instruction queue wakeup accesses
system.cpu.iq.vec_inst_queue_writes                 0                       # Number of vector instruction queue writes
system.cpu.memDep0.conflictingLoads                38                       # Number of conflicting loads.
system.cpu.memDep0.conflictingStores               19                       # Number of conflicting stores.
system.cpu.memDep0.insertedLoads               129411                       # Number of loads inserted to the mem dependence unit.
system.cpu.memDep0.insertedStores             2207521                       # Number of stores inserted to the mem dependence unit.
system.cpu.misc_regfile_reads                 6881466                       # number of misc regfile reads
system.cpu.numCycles                         26056430                       # number of cpu cycles simulated
system.cpu.numWorkItemsCompleted                    0                       # number of work items this cpu completed
system.cpu.numWorkItemsStarted                      0                       # number of work items this cpu started
system.cpu.timesIdled                             313                       # Number of times that the entire CPU went into an idle state and unscheduled itself
system.cpu.workload.numSyscalls                    11                       # Number of system calls
system.membus.snoop_filter.hit_multi_requests            0                       # Number of requests hitting in the snoop filter with multiple (>1) holders of the requested data.
system.membus.snoop_filter.hit_multi_snoops            0                       # Number of snoops hitting in the snoop filter with multiple (>1) holders of the requested data.
system.membus.snoop_filter.hit_single_requests          782                       # Number of requests hitting in the snoop filter with a single holder of the requested data.
system.membus.snoop_filter.hit_single_snoops            0                       # Number of snoops hitting in the snoop filter with a single holder of the requested data.
system.membus.snoop_filter.tot_requests         17854                       # Total number of requests made to the snoop filter.
system.membus.snoop_filter.tot_snoops               0                       # Total number of snoops made to the snoop filter.
system.tol2bus.snoop_filter.hit_multi_requests            0                       # Number of requests hitting in the snoop filter with multiple (>1) holders of the requested data.
system.tol2bus.snoop_filter.hit_multi_snoops            0                       # Number of snoops hitting in the snoop filter with multiple (>1) holders of the requested data.
system.tol2bus.snoop_filter.hit_single_requests       777480                       # Number of requests hitting in the snoop filter with a single holder of the requested data.
system.tol2bus.snoop_filter.hit_single_snoops           94                       # Number of snoops hitting in the snoop filter with a single holder of the requested data.
system.tol2bus.snoop_filter.tot_requests      1556446                       # Total number of requests made to the snoop filter.
system.tol2bus.snoop_filter.tot_snoops             94                       # Total number of snoops made to the snoop filter.
system.clk_domain.clock                          1000                       # Clock period in ticks
system.cpu.branchPred.lookups                 2277743                       # Number of BP lookups
system.cpu.branchPred.condPredicted           2276513                       # Number of conditional branches predicted
system.cpu.branchPred.condIncorrect              1050                       # Number of conditional branches incorrect
system.cpu.branchPred.BTBLookups              2273936                       # Number of BTB lookups
system.cpu.branchPred.BTBHits                 2273135                       # Number of BTB hits
system.cpu.branchPred.BTBHitPct             99.964775                       # BTB Hit Percentage
system.cpu.branchPred.RASUsed                     300                       # Number of times the RAS was used to get a target.
system.cpu.branchPred.RASIncorrect                  0                       # Number of incorrect RAS predictions.
system.cpu.branchPred.indirectLookups             285                       # Number of indirect predictor lookups.
system.cpu.branchPred.indirectHits                 16                       # Number of indirect target hits.
system.cpu.branchPred.indirectMisses              269                       # Number of indirect misses.
system.cpu.branchPred.indirectMispredicted           90                       # Number of mispredicted indirect branches.
system.cpu.commit.commitSquashedInsts           67304                       # The number of squashed insts skipped by commit
system.cpu.commit.commitNonSpecStalls              12                       # The number of times commit has been forced to stall to communicate backwards
system.cpu.commit.branchMispredicts               956                       # The number of times a branch was mispredicted
system.cpu.commit.numCommittedDist::samples     26009020                       # Number of insts commited each cycle
system.cpu.commit.numCommittedDist::mean     0.684153                       # Number of insts commited each cycle
system.cpu.commit.numCommittedDist::stdev     1.539578                       # Number of insts commited each cycle
system.cpu.commit.numCommittedDist::underflows            0      0.00%      0.00% # Number of insts commited each cycle
system.cpu.commit.numCommittedDist::0        20453545     78.64%     78.64% # Number of insts commited each cycle
system.cpu.commit.numCommittedDist::1          244143      0.94%     79.58% # Number of insts commited each cycle
system.cpu.commit.numCommittedDist::2         2257533      8.68%     88.26% # Number of insts commited each cycle
system.cpu.commit.numCommittedDist::3         1476660      5.68%     93.94% # Number of insts commited each cycle
system.cpu.commit.numCommittedDist::4          724504      2.79%     96.72% # Number of insts commited each cycle
system.cpu.commit.numCommittedDist::5          287338      1.10%     97.83% # Number of insts commited each cycle
system.cpu.commit.numCommittedDist::6           43001      0.17%     97.99% # Number of insts commited each cycle
system.cpu.commit.numCommittedDist::7          166108      0.64%     98.63% # Number of insts commited each cycle
system.cpu.commit.numCommittedDist::8          356188      1.37%    100.00% # Number of insts commited each cycle
system.cpu.commit.numCommittedDist::overflows            0      0.00%    100.00% # Number of insts commited each cycle
system.cpu.commit.numCommittedDist::min_value            0                       # Number of insts commited each cycle
system.cpu.commit.numCommittedDist::max_value            8                       # Number of insts commited each cycle
system.cpu.commit.numCommittedDist::total     26009020                       # Number of insts commited each cycle
system.cpu.commit.instsCommitted              9995921                       # Number of instructions committed
system.cpu.commit.opsCommitted               17794161                       # Number of ops (including micro ops) committed
system.cpu.commit.memRefs                     2327019                       # Number of memory references committed
system.cpu.commit.loads                        127545                       # Number of loads committed
system.cpu.commit.amos                              0                       # Number of atomic instructions committed
system.cpu.commit.membars                           8                       # Number of memory barriers committed
system.cpu.commit.branches                    2264230                       # Number of branches committed
system.cpu.commit.vector                            0                       # Number of committed Vector instructions.
system.cpu.commit.floating                    2001126                       # Number of committed floating point instructions.
system.cpu.commit.integer                    15918412                       # Number of committed integer instructions.
system.cpu.commit.functionCalls                   148                       # Number of function calls committed.
system.cpu.commit.committedInstType_0::No_OpClass          287      0.00%      0.00% # Class of committed instruction
system.cpu.commit.committedInstType_0::IntAlu     13965345     78.48%     78.48% # Class of committed instruction
system.cpu.commit.committedInstType_0::IntMult         1004      0.01%     78.49% # Class of committed instruction
system.cpu.commit.committedInstType_0::IntDiv           21      0.00%     78.49% # Class of committed instruction
system.cpu.commit.committedInstType_0::FloatAdd          135      0.00%     78.49% # Class of committed instruction
system.cpu.commit.committedInstType_0::FloatCmp            0      0.00%     78.49% # Class of committed instruction
system.cpu.commit.committedInstType_0::FloatCvt            0      0.00%     78.49% # Class of committed instruction
system.cpu.commit.committedInstType_0::FloatMult            0      0.00%     78.49% # Class of committed instruction
system.cpu.commit.committedInstType_0::FloatMultAcc            0      0.00%     78.49% # Class of committed instruction
system.cpu.commit.committedInstType_0::FloatDiv            0      0.00%     78.49% # Class of committed instruction
system.cpu.commit.committedInstType_0::FloatMisc            0      0.00%     78.49% # Class of committed instruction
system.cpu.commit.committedInstType_0::FloatSqrt            0      0.00%     78.49% # Class of committed instruction
system.cpu.commit.committedInstType_0::SimdAdd       499996      2.81%     81.30% # Class of committed instruction
system.cpu.commit.committedInstType_0::SimdAddAcc            0      0.00%     81.30% # Class of committed instruction
system.cpu.commit.committedInstType_0::SimdAlu       125100      0.70%     82.00% # Class of committed instruction
system.cpu.commit.committedInstType_0::SimdCmp            0      0.00%     82.00% # Class of committed instruction
system.cpu.commit.committedInstType_0::SimdCvt       125044      0.70%     82.71% # Class of committed instruction
system.cpu.commit.committedInstType_0::SimdMisc       750204      4.22%     86.92% # Class of committed instruction
system.cpu.commit.committedInstType_0::SimdMult            0      0.00%     86.92% # Class of committed instruction
system.cpu.commit.committedInstType_0::SimdMultAcc            0      0.00%     86.92% # Class of committed instruction
system.cpu.commit.committedInstType_0::SimdShift            6      0.00%     86.92% # Class of committed instruction
system.cpu.commit.committedInstType_0::SimdShiftAcc            0      0.00%     86.92% # Class of committed instruction
system.cpu.commit.committedInstType_0::SimdDiv            0      0.00%     86.92% # Class of committed instruction
system.cpu.commit.committedInstType_0::SimdSqrt            0      0.00%     86.92% # Class of committed instruction
system.cpu.commit.committedInstType_0::SimdFloatAdd            0      0.00%     86.92% # Class of committed instruction
system.cpu.commit.committedInstType_0::SimdFloatAlu            0      0.00%     86.92% # Class of committed instruction
system.cpu.commit.committedInstType_0::SimdFloatCmp            0      0.00%     86.92% # Class of committed instruction
system.cpu.commit.committedInstType_0::SimdFloatCvt            0      0.00%     86.92% # Class of committed instruction
system.cpu.commit.committedInstType_0::SimdFloatDiv            0      0.00%     86.92% # Class of committed instruction
system.cpu.commit.committedInstType_0::SimdFloatMisc            0      0.00%     86.92% # Class of committed instruction
system.cpu.commit.committedInstType_0::SimdFloatMult            0      0.00%     86.92% # Class of committed instruction
system.cpu.commit.committedInstType_0::SimdFloatMultAcc            0      0.00%     86.92% # Class of committed instruction
system.cpu.commit.committedInstType_0::SimdFloatSqrt            0      0.00%     86.92% # Class of committed instruction
system.cpu.commit.committedInstType_0::SimdReduceAdd            0      0.00%     86.92% # Class of committed instruction
system.cpu.commit.committedInstType_0::SimdReduceAlu            0      0.00%     86.92% # Class of committed instruction
system.cpu.commit.committedInstType_0::SimdReduceCmp            0      0.00%     86.92% # Class of committed instruction
system.cpu.commit.committedInstType_0::SimdFloatReduceAdd            0      0.00%     86.92% # Class of committed instruction
system.cpu.commit.committedInstType_0::SimdFloatReduceCmp            0      0.00%     86.92% # Class of committed instruction
system.cpu.commit.committedInstType_0::SimdAes            0      0.00%     86.92% # Class of committed instruction
system.cpu.commit.committedInstType_0::SimdAesMix            0      0.00%     86.92% # Class of committed instruction
system.cpu.commit.committedInstType_0::SimdSha1Hash            0      0.00%     86.92% # Class of committed instruction
system.cpu.commit.committedInstType_0::SimdSha1Hash2            0      0.00%     86.92% # Class of committed instruction
system.cpu.commit.committedInstType_0::SimdSha256Hash            0      0.00%     86.92% # Class of committed instruction
system.cpu.commit.committedInstType_0::SimdSha256Hash2            0      0.00%     86.92% # Class of committed instruction
system.cpu.commit.committedInstType_0::SimdShaSigma2            0      0.00%     86.92% # Class of committed instruction
system.cpu.commit.committedInstType_0::SimdShaSigma3            0      0.00%     86.92% # Class of committed instruction
system.cpu.commit.committedInstType_0::SimdPredAlu            0      0.00%     86.92% # Class of committed instruction
system.cpu.commit.committedInstType_0::MemRead         2499      0.01%     86.94% # Class of committed instruction
system.cpu.commit.committedInstType_0::MemWrite      2199016     12.36%     99.29% # Class of committed instruction
system.cpu.commit.committedInstType_0::FloatMemRead       125046      0.70%    100.00% # Class of committed instruction
system.cpu.commit.committedInstType_0::FloatMemWrite          458      0.00%    100.00% # Class of committed instruction
system.cpu.commit.committedInstType_0::IprAccess            0      0.00%    100.00% # Class of committed instruction
system.cpu.commit.committedInstType_0::InstPrefetch            0      0.00%    100.00% # Class of committed instruction
system.cpu.commit.committedInstType_0::total     17794161                       # Class of committed instruction
system.cpu.commit.commitEligibleSamples        356188                       # number cycles where commit BW limit reached
system.cpu.dcache.demand_hits::.cpu.data      1502186                       # number of demand (read+write) hits
system.cpu.dcache.demand_hits::total          1502186                       # number of demand (read+write) hits
system.cpu.dcache.overall_hits::.cpu.data      1502186                       # number of overall hits
system.cpu.dcache.overall_hits::total         1502186                       # number of overall hits
system.cpu.dcache.demand_misses::.cpu.data       841549                       # number of demand (read+write) misses
system.cpu.dcache.demand_misses::total         841549                       # number of demand (read+write) misses
system.cpu.dcache.overall_misses::.cpu.data       841549                       # number of overall misses
system.cpu.dcache.overall_misses::total        841549                       # number of overall misses
system.cpu.dcache.demand_miss_latency::.cpu.data  12008675999                       # number of demand (read+write) miss cycles
system.cpu.dcache.demand_miss_latency::total  12008675999                       # number of demand (read+write) miss cycles
system.cpu.dcache.overall_miss_latency::.cpu.data  12008675999                       # number of overall miss cycles
system.cpu.dcache.overall_miss_latency::total  12008675999                       # number of overall miss cycles
system.cpu.dcache.demand_accesses::.cpu.data      2343735                       # number of demand (read+write) accesses
system.cpu.dcache.demand_accesses::total      2343735                       # number of demand (read+write) accesses
system.cpu.dcache.overall_accesses::.cpu.data      2343735                       # number of overall (read+write) accesses
system.cpu.dcache.overall_accesses::total      2343735                       # number of overall (read+write) accesses
system.cpu.dcache.demand_miss_rate::.cpu.data     0.359063                       # miss rate for demand accesses
system.cpu.dcache.demand_miss_rate::total     0.359063                       # miss rate for demand accesses
system.cpu.dcache.overall_miss_rate::.cpu.data     0.359063                       # miss rate for overall accesses
system.cpu.dcache.overall_miss_rate::total     0.359063                       # miss rate for overall accesses
system.cpu.dcache.demand_avg_miss_latency::.cpu.data 14269.728797                       # average overall miss latency
system.cpu.dcache.demand_avg_miss_latency::total 14269.728797                       # average overall miss latency
system.cpu.dcache.overall_avg_miss_latency::.cpu.data 14269.728797                       # average overall miss latency
system.cpu.dcache.overall_avg_miss_latency::total 14269.728797                       # average overall miss latency
system.cpu.dcache.blocked_cycles::no_mshrs         1661                       # number of cycles access was blocked
system.cpu.dcache.blocked_cycles::no_targets            0                       # number of cycles access was blocked
system.cpu.dcache.blocked::no_mshrs                18                       # number of cycles access was blocked
system.cpu.dcache.blocked::no_targets               0                       # number of cycles access was blocked
system.cpu.dcache.avg_blocked_cycles::no_mshrs    92.277778                       # average number of cycles each access was blocked
system.cpu.dcache.avg_blocked_cycles::no_targets          nan                       # average number of cycles each access was blocked
system.cpu.dcache.writebacks::.writebacks       777377                       # number of writebacks
system.cpu.dcache.writebacks::total            777377                       # number of writebacks
system.cpu.dcache.demand_mshr_hits::.cpu.data        63069                       # number of demand (read+write) MSHR hits
system.cpu.dcache.demand_mshr_hits::total        63069                       # number of demand (read+write) MSHR hits
system.cpu.dcache.overall_mshr_hits::.cpu.data        63069                       # number of overall MSHR hits
system.cpu.dcache.overall_mshr_hits::total        63069                       # number of overall MSHR hits
system.cpu.dcache.demand_mshr_misses::.cpu.data       778480                       # number of demand (read+write) MSHR misses
system.cpu.dcache.demand_mshr_misses::total       778480                       # number of demand (read+write) MSHR misses
system.cpu.dcache.overall_mshr_misses::.cpu.data       778480                       # number of overall MSHR misses
system.cpu.dcache.overall_mshr_misses::total       778480                       # number of overall MSHR misses
system.cpu.dcache.demand_mshr_miss_latency::.cpu.data  10670436999                       # number of demand (read+write) MSHR miss cycles
system.cpu.dcache.demand_mshr_miss_latency::total  10670436999                       # number of demand (read+write) MSHR miss cycles
system.cpu.dcache.overall_mshr_miss_latency::.cpu.data  10670436999                       # number of overall MSHR miss cycles
system.cpu.dcache.overall_mshr_miss_latency::total  10670436999                       # number of overall MSHR miss cycles
system.cpu.dcache.demand_mshr_miss_rate::.cpu.data     0.332154                       # mshr miss rate for demand accesses
system.cpu.dcache.demand_mshr_miss_rate::total     0.332154                       # mshr miss rate for demand accesses
system.cpu.dcache.overall_mshr_miss_rate::.cpu.data     0.332154                       # mshr miss rate for overall accesses
system.cpu.dcache.overall_mshr_miss_rate::total     0.332154                       # mshr miss rate for overall accesses
system.cpu.dcache.demand_avg_mshr_miss_latency::.cpu.data 13706.758040                       # average overall mshr miss latency
system.cpu.dcache.demand_avg_mshr_miss_latency::total 13706.758040                       # average overall mshr miss latency
system.cpu.dcache.overall_avg_mshr_miss_latency::.cpu.data 13706.758040                       # average overall mshr miss latency
system.cpu.dcache.overall_avg_mshr_miss_latency::total 13706.758040                       # average overall mshr miss latency
system.cpu.dcache.replacements                 777456                       # number of replacements
system.cpu.dcache.ReadReq_hits::.cpu.data        65292                       # number of ReadReq hits
system.cpu.dcache.ReadReq_hits::total           65292                       # number of ReadReq hits
system.cpu.dcache.ReadReq_misses::.cpu.data        78968                       # number of ReadReq misses
system.cpu.dcache.ReadReq_misses::total         78968                       # number of ReadReq misses
system.cpu.dcache.ReadReq_miss_latency::.cpu.data    777414000                       # number of ReadReq miss cycles
system.cpu.dcache.ReadReq_miss_latency::total    777414000                       # number of ReadReq miss cycles
system.cpu.dcache.ReadReq_accesses::.cpu.data       144260                       # number of ReadReq accesses(hits+misses)
system.cpu.dcache.ReadReq_accesses::total       144260                       # number of ReadReq accesses(hits+misses)
system.cpu.dcache.ReadReq_miss_rate::.cpu.data     0.547401                       # miss rate for ReadReq accesses
system.cpu.dcache.ReadReq_miss_rate::total     0.547401                       # miss rate for ReadReq accesses
system.cpu.dcache.ReadReq_avg_miss_latency::.cpu.data  9844.671259                       # average ReadReq miss latency
system.cpu.dcache.ReadReq_avg_miss_latency::total  9844.671259                       # average ReadReq miss latency
system.cpu.dcache.ReadReq_mshr_hits::.cpu.data        63068                       # number of ReadReq MSHR hits
system.cpu.dcache.ReadReq_mshr_hits::total        63068                       # number of ReadReq MSHR hits
system.cpu.dcache.ReadReq_mshr_misses::.cpu.data        15900                       # number of ReadReq MSHR misses
system.cpu.dcache.ReadReq_mshr_misses::total        15900                       # number of ReadReq MSHR misses
system.cpu.dcache.ReadReq_mshr_miss_latency::.cpu.data    201850500                       # number of ReadReq MSHR miss cycles
system.cpu.dcache.ReadReq_mshr_miss_latency::total    201850500                       # number of ReadReq MSHR miss cycles
system.cpu.dcache.ReadReq_mshr_miss_rate::.cpu.data     0.110218                       # mshr miss rate for ReadReq accesses
system.cpu.dcache.ReadReq_mshr_miss_rate::total     0.110218                       # mshr miss rate for ReadReq accesses
system.cpu.dcache.ReadReq_avg_mshr_miss_latency::.cpu.data        12695                       # average ReadReq mshr miss latency
system.cpu.dcache.ReadReq_avg_mshr_miss_latency::total        12695                       # average ReadReq mshr miss latency
system.cpu.dcache.WriteReq_hits::.cpu.data      1436894                       # number of WriteReq hits
system.cpu.dcache.WriteReq_hits::total        1436894                       # number of WriteReq hits
system.cpu.dcache.WriteReq_misses::.cpu.data       762581                       # number of WriteReq misses
system.cpu.dcache.WriteReq_misses::total       762581                       # number of WriteReq misses
system.cpu.dcache.WriteReq_miss_latency::.cpu.data  11231261999                       # number of WriteReq miss cycles
system.cpu.dcache.WriteReq_miss_latency::total  11231261999                       # number of WriteReq miss cycles
system.cpu.dcache.WriteReq_accesses::.cpu.data      2199475                       # number of WriteReq accesses(hits+misses)
system.cpu.dcache.WriteReq_accesses::total      2199475                       # number of WriteReq accesses(hits+misses)
system.cpu.dcache.WriteReq_miss_rate::.cpu.data     0.346710                       # miss rate for WriteReq accesses
system.cpu.dcache.WriteReq_miss_rate::total     0.346710                       # miss rate for WriteReq accesses
system.cpu.dcache.WriteReq_avg_miss_latency::.cpu.data 14727.959389                       # average WriteReq miss latency
system.cpu.dcache.WriteReq_avg_miss_latency::total 14727.959389                       # average WriteReq miss latency
system.cpu.dcache.WriteReq_mshr_hits::.cpu.data            1                       # number of WriteReq MSHR hits
system.cpu.dcache.WriteReq_mshr_hits::total            1                       # number of WriteReq MSHR hits
system.cpu.dcache.WriteReq_mshr_misses::.cpu.data       762580                       # number of WriteReq MSHR misses
system.cpu.dcache.WriteReq_mshr_misses::total       762580                       # number of WriteReq MSHR misses
system.cpu.dcache.WriteReq_mshr_miss_latency::.cpu.data  10468586499                       # number of WriteReq MSHR miss cycles
system.cpu.dcache.WriteReq_mshr_miss_latency::total  10468586499                       # number of WriteReq MSHR miss cycles
system.cpu.dcache.WriteReq_mshr_miss_rate::.cpu.data     0.346710                       # mshr miss rate for WriteReq accesses
system.cpu.dcache.WriteReq_mshr_miss_rate::total     0.346710                       # mshr miss rate for WriteReq accesses
system.cpu.dcache.WriteReq_avg_mshr_miss_latency::.cpu.data 13727.853470                       # average WriteReq mshr miss latency
system.cpu.dcache.WriteReq_avg_mshr_miss_latency::total 13727.853470                       # average WriteReq mshr miss latency
system.cpu.dcache.power_state.pwrStateResidencyTicks::UNDEFINED  13028214500                       # Cumulative time (in ticks) in various power states
system.cpu.dcache.tags.tagsinuse          1017.475170                       # Cycle average of tags in use
system.cpu.dcache.tags.total_refs             2280666                       # Total number of references to valid blocks.
system.cpu.dcache.tags.sampled_refs            778480                       # Sample count of references to valid blocks.
system.cpu.dcache.tags.avg_refs              2.929640                       # Average number of references to valid blocks.
system.cpu.dcache.tags.warmup_cycle            176500                       # Cycle when the warmup percentage was hit.
system.cpu.dcache.tags.occ_blocks::.cpu.data  1017.475170                       # Average occupied blocks per requestor
system.cpu.dcache.tags.occ_percent::.cpu.data     0.993628                       # Average percentage of cache occupancy
system.cpu.dcache.tags.occ_percent::total     0.993628                       # Average percentage of cache occupancy
system.cpu.dcache.tags.occ_task_id_blocks::1024         1024                       # Occupied blocks per task id
system.cpu.dcache.tags.age_task_id_blocks_1024::0          334                       # Occupied blocks per task id
system.cpu.dcache.tags.age_task_id_blocks_1024::1          690                       # Occupied blocks per task id
system.cpu.dcache.tags.occ_task_id_percent::1024            1                       # Percentage of cache occupancy per task id
system.cpu.dcache.tags.tag_accesses          19528360                       # Number of tag accesses
system.cpu.dcache.tags.data_accesses         19528360                       # Number of data accesses
system.cpu.dcache.tags.power_state.pwrStateResidencyTicks::UNDEFINED  13028214500                       # Cumulative time (in ticks) in various power states
system.cpu.decode.idleCycles                   685421                       # Number of cycles decode is idle
system.cpu.decode.blockedCycles              23063564                       # Number of cycles decode is blocked
system.cpu.decode.runCycles                    699748                       # Number of cycles decode is running
system.cpu.decode.unblockCycles               1568127                       # Number of cycles decode is unblocking
system.cpu.decode.squashCycles                   1224                       # Number of cycles decode is squashing
system.cpu.decode.branchResolved              2270099                       # Number of times decode resolved a  branch
system.cpu.decode.branchMispred                   222                       # Number of times decode detected a branch misprediction
system.cpu.decode.decodedInsts               17869561                       # Number of instructions handled by decode
system.cpu.decode.squashedInsts                   902                       # Number of squashed instructions handled by decode
system.cpu.dtb.rdAccesses                      144519                       # TLB accesses on read requests
system.cpu.dtb.wrAccesses                     2207018                       # TLB accesses on write requests
system.cpu.dtb.rdMisses                           498                       # TLB misses on read requests
system.cpu.dtb.wrMisses                         47837                       # TLB misses on write requests
system.cpu.dtb.walker.power_state.pwrStateResidencyTicks::UNDEFINED  13028214500                       # Cumulative time (in ticks) in various power states
system.cpu.dtb_walker_cache.blocked_cycles::no_mshrs            0                       # number of cycles access was blocked
system.cpu.dtb_walker_cache.blocked_cycles::no_targets            0                       # number of cycles access was blocked
system.cpu.dtb_walker_cache.blocked::no_mshrs            0                       # number of cycles access was blocked
system.cpu.dtb_walker_cache.blocked::no_targets            0                       # number of cycles access was blocked
system.cpu.dtb_walker_cache.avg_blocked_cycles::no_mshrs          nan                       # average number of cycles each access was blocked
system.cpu.dtb_walker_cache.avg_blocked_cycles::no_targets          nan                       # average number of cycles each access was blocked
system.cpu.dtb_walker_cache.replacements            0                       # number of replacements
system.cpu.dtb_walker_cache.power_state.pwrStateResidencyTicks::UNDEFINED  13028214500                       # Cumulative time (in ticks) in various power states
system.cpu.dtb_walker_cache.tags.tagsinuse            0                       # Cycle average of tags in use
system.cpu.dtb_walker_cache.tags.total_refs            0                       # Total number of references to valid blocks.
system.cpu.dtb_walker_cache.tags.sampled_refs            0                       # Sample count of references to valid blocks.
system.cpu.dtb_walker_cache.tags.avg_refs          nan                       # Average number of references to valid blocks.
system.cpu.dtb_walker_cache.tags.warmup_cycle            0                       # Cycle when the warmup percentage was hit.
system.cpu.dtb_walker_cache.tags.tag_accesses            0                       # Number of tag accesses
system.cpu.dtb_walker_cache.tags.data_accesses            0                       # Number of data accesses
system.cpu.dtb_walker_cache.tags.power_state.pwrStateResidencyTicks::UNDEFINED  13028214500                       # Cumulative time (in ticks) in various power states
system.cpu.fetch.icacheStallCycles             146539                       # Number of cycles fetch is stalled on an Icache miss
system.cpu.fetch.insts                       10053023                       # Number of instructions fetch has processed
system.cpu.fetch.branches                     2277743                       # Number of branches that fetch encountered
system.cpu.fetch.predictedBranches            2273451                       # Number of branches that fetch has predicted taken
system.cpu.fetch.cycles                      25869156                       # Number of cycles fetch has run and was not squashing or blocked
system.cpu.fetch.squashCycles                    2874                       # Number of cycles fetch has spent squashing
system.cpu.fetch.miscStallCycles                  134                       # Number of cycles fetch has spent waiting on interrupts,or bad addresses, or out of MSHRs
system.cpu.fetch.pendingTrapStallCycles           783                       # Number of stall cycles due to pending traps
system.cpu.fetch.pendingQuiesceStallCycles            2                       # Number of stall cycles due to pending quiesce instructions
system.cpu.fetch.icacheWaitRetryStallCycles           33                       # Number of stall cycles due to full MSHR
system.cpu.fetch.cacheLines                    130901                       # Number of cache lines fetched
system.cpu.fetch.icacheSquashes                   441                       # Number of outstanding Icache misses that were squashed
system.cpu.fetch.nisnDist::samples           26018084                       # Number of instructions fetched each cycle (Total)
system.cpu.fetch.nisnDist::mean              0.687822                       # Number of instructions fetched each cycle (Total)
system.cpu.fetch.nisnDist::stdev             1.965821                       # Number of instructions fetched each cycle (Total)
system.cpu.fetch.nisnDist::underflows               0      0.00%      0.00% # Number of instructions fetched each cycle (Total)
system.cpu.fetch.nisnDist::0                 22681341     87.18%     87.18% # Number of instructions fetched each cycle (Total)
system.cpu.fetch.nisnDist::1                   346583      1.33%     88.51% # Number of instructions fetched each cycle (Total)
system.cpu.fetch.nisnDist::2                   254004      0.98%     89.48% # Number of instructions fetched each cycle (Total)
system.cpu.fetch.nisnDist::3                   207389      0.80%     90.28% # Number of instructions fetched each cycle (Total)
system.cpu.fetch.nisnDist::4                   254339      0.98%     91.26% # Number of instructions fetched each cycle (Total)
system.cpu.fetch.nisnDist::5                   190487      0.73%     91.99% # Number of instructions fetched each cycle (Total)
system.cpu.fetch.nisnDist::6                   377952      1.45%     93.44% # Number of instructions fetched each cycle (Total)
system.cpu.fetch.nisnDist::7                  1466367      5.64%     99.08% # Number of instructions fetched each cycle (Total)
system.cpu.fetch.nisnDist::8                   239622      0.92%    100.00% # Number of instructions fetched each cycle (Total)
system.cpu.fetch.nisnDist::overflows                0      0.00%    100.00% # Number of instructions fetched each cycle (Total)
system.cpu.fetch.nisnDist::min_value                0                       # Number of instructions fetched each cycle (Total)
system.cpu.fetch.nisnDist::max_value                8                       # Number of instructions fetched each cycle (Total)
system.cpu.fetch.nisnDist::total             26018084                       # Number of instructions fetched each cycle (Total)
system.cpu.fetch.branchRate                  0.087416                       # Number of branch fetches per cycle
system.cpu.fetch.rate                        0.385817                       # Number of inst fetches per cycle
system.cpu.icache.demand_hits::.cpu.inst       130279                       # number of demand (read+write) hits
system.cpu.icache.demand_hits::total           130279                       # number of demand (read+write) hits
system.cpu.icache.overall_hits::.cpu.inst       130279                       # number of overall hits
system.cpu.icache.overall_hits::total          130279                       # number of overall hits
system.cpu.icache.demand_misses::.cpu.inst          622                       # number of demand (read+write) misses
system.cpu.icache.demand_misses::total            622                       # number of demand (read+write) misses
system.cpu.icache.overall_misses::.cpu.inst          622                       # number of overall misses
system.cpu.icache.overall_misses::total           622                       # number of overall misses
system.cpu.icache.demand_miss_latency::.cpu.inst     48277499                       # number of demand (read+write) miss cycles
system.cpu.icache.demand_miss_latency::total     48277499                       # number of demand (read+write) miss cycles
system.cpu.icache.overall_miss_latency::.cpu.inst     48277499                       # number of overall miss cycles
system.cpu.icache.overall_miss_latency::total     48277499                       # number of overall miss cycles
system.cpu.icache.demand_accesses::.cpu.inst       130901                       # number of demand (read+write) accesses
system.cpu.icache.demand_accesses::total       130901                       # number of demand (read+write) accesses
system.cpu.icache.overall_accesses::.cpu.inst       130901                       # number of overall (read+write) accesses
system.cpu.icache.overall_accesses::total       130901                       # number of overall (read+write) accesses
system.cpu.icache.demand_miss_rate::.cpu.inst     0.004752                       # miss rate for demand accesses
system.cpu.icache.demand_miss_rate::total     0.004752                       # miss rate for demand accesses
system.cpu.icache.overall_miss_rate::.cpu.inst     0.004752                       # miss rate for overall accesses
system.cpu.icache.overall_miss_rate::total     0.004752                       # miss rate for overall accesses
system.cpu.icache.demand_avg_miss_latency::.cpu.inst 77616.557878                       # average overall miss latency
system.cpu.icache.demand_avg_miss_latency::total 77616.557878                       # average overall miss latency
system.cpu.icache.overall_avg_miss_latency::.cpu.inst 77616.557878                       # average overall miss latency
system.cpu.icache.overall_avg_miss_latency::total 77616.557878                       # average overall miss latency
system.cpu.icache.blocked_cycles::no_mshrs          943                       # number of cycles access was blocked
system.cpu.icache.blocked_cycles::no_targets            0                       # number of cycles access was blocked
system.cpu.icache.blocked::no_mshrs                 5                       # number of cycles access was blocked
system.cpu.icache.blocked::no_targets               0                       # number of cycles access was blocked
system.cpu.icache.avg_blocked_cycles::no_mshrs   188.600000                       # average number of cycles each access was blocked
system.cpu.icache.avg_blocked_cycles::no_targets          nan                       # average number of cycles each access was blocked
system.cpu.icache.writebacks::.writebacks           24                       # number of writebacks
system.cpu.icache.writebacks::total                24                       # number of writebacks
system.cpu.icache.demand_mshr_hits::.cpu.inst          136                       # number of demand (read+write) MSHR hits
system.cpu.icache.demand_mshr_hits::total          136                       # number of demand (read+write) MSHR hits
system.cpu.icache.overall_mshr_hits::.cpu.inst          136                       # number of overall MSHR hits
system.cpu.icache.overall_mshr_hits::total          136                       # number of overall MSHR hits
system.cpu.icache.demand_mshr_misses::.cpu.inst          486                       # number of demand (read+write) MSHR misses
system.cpu.icache.demand_mshr_misses::total          486                       # number of demand (read+write) MSHR misses
system.cpu.icache.overall_mshr_misses::.cpu.inst          486                       # number of overall MSHR misses
system.cpu.icache.overall_mshr_misses::total          486                       # number of overall MSHR misses
system.cpu.icache.demand_mshr_miss_latency::.cpu.inst     39991999                       # number of demand (read+write) MSHR miss cycles
system.cpu.icache.demand_mshr_miss_latency::total     39991999                       # number of demand (read+write) MSHR miss cycles
system.cpu.icache.overall_mshr_miss_latency::.cpu.inst     39991999                       # number of overall MSHR miss cycles
system.cpu.icache.overall_mshr_miss_latency::total     39991999                       # number of overall MSHR miss cycles
system.cpu.icache.demand_mshr_miss_rate::.cpu.inst     0.003713                       # mshr miss rate for demand accesses
system.cpu.icache.demand_mshr_miss_rate::total     0.003713                       # mshr miss rate for demand accesses
system.cpu.icache.overall_mshr_miss_rate::.cpu.inst     0.003713                       # mshr miss rate for overall accesses
system.cpu.icache.overall_mshr_miss_rate::total     0.003713                       # mshr miss rate for overall accesses
system.cpu.icache.demand_avg_mshr_miss_latency::.cpu.inst 82288.063786                       # average overall mshr miss latency
system.cpu.icache.demand_avg_mshr_miss_latency::total 82288.063786                       # average overall mshr miss latency
system.cpu.icache.overall_avg_mshr_miss_latency::.cpu.inst 82288.063786                       # average overall mshr miss latency
system.cpu.icache.overall_avg_mshr_miss_latency::total 82288.063786                       # average overall mshr miss latency
system.cpu.icache.replacements                     24                       # number of replacements
system.cpu.icache.ReadReq_hits::.cpu.inst       130279                       # number of ReadReq hits
system.cpu.icache.ReadReq_hits::total          130279                       # number of ReadReq hits
system.cpu.icache.ReadReq_misses::.cpu.inst          622                       # number of ReadReq misses
system.cpu.icache.ReadReq_misses::total           622                       # number of ReadReq misses
system.cpu.icache.ReadReq_miss_latency::.cpu.inst     48277499                       # number of ReadReq miss cycles
system.cpu.icache.ReadReq_miss_latency::total     48277499                       # number of ReadReq miss cycles
system.cpu.icache.ReadReq_accesses::.cpu.inst       130901                       # number of ReadReq accesses(hits+misses)
system.cpu.icache.ReadReq_accesses::total       130901                       # number of ReadReq accesses(hits+misses)
system.cpu.icache.ReadReq_miss_rate::.cpu.inst     0.004752                       # miss rate for ReadReq accesses
system.cpu.icache.ReadReq_miss_rate::total     0.004752                       # miss rate for ReadReq accesses
system.cpu.icache.ReadReq_avg_miss_latency::.cpu.inst 77616.557878                       # average ReadReq miss latency
system.cpu.icache.ReadReq_avg_miss_latency::total 77616.557878                       # average ReadReq miss latency
system.cpu.icache.ReadReq_mshr_hits::.cpu.inst          136                       # number of ReadReq MSHR hits
system.cpu.icache.ReadReq_mshr_hits::total          136                       # number of ReadReq MSHR hits
system.cpu.icache.ReadReq_mshr_misses::.cpu.inst          486                       # number of ReadReq MSHR misses
system.cpu.icache.ReadReq_mshr_misses::total          486                       # number of ReadReq MSHR misses
system.cpu.icache.ReadReq_mshr_miss_latency::.cpu.inst     39991999                       # number of ReadReq MSHR miss cycles
system.cpu.icache.ReadReq_mshr_miss_latency::total     39991999                       # number of ReadReq MSHR miss cycles
system.cpu.icache.ReadReq_mshr_miss_rate::.cpu.inst     0.003713                       # mshr miss rate for ReadReq accesses
system.cpu.icache.ReadReq_mshr_miss_rate::total     0.003713                       # mshr miss rate for ReadReq accesses
system.cpu.icache.ReadReq_avg_mshr_miss_latency::.cpu.inst 82288.063786                       # average ReadReq mshr miss latency
system.cpu.icache.ReadReq_avg_mshr_miss_latency::total 82288.063786                       # average ReadReq mshr miss latency
system.cpu.icache.power_state.pwrStateResidencyTicks::UNDEFINED  13028214500                       # Cumulative time (in ticks) in various power states
system.cpu.icache.tags.tagsinuse           418.362969                       # Cycle average of tags in use
system.cpu.icache.tags.total_refs              130764                       # Total number of references to valid blocks.
system.cpu.icache.tags.sampled_refs               485                       # Sample count of references to valid blocks.
system.cpu.icache.tags.avg_refs            269.616495                       # Average number of references to valid blocks.
system.cpu.icache.tags.warmup_cycle             87500                       # Cycle when the warmup percentage was hit.
system.cpu.icache.tags.occ_blocks::.cpu.inst   418.362969                       # Average occupied blocks per requestor
system.cpu.icache.tags.occ_percent::.cpu.inst     0.408558                       # Average percentage of cache occupancy
system.cpu.icache.tags.occ_percent::total     0.408558                       # Average percentage of cache occupancy
system.cpu.icache.tags.occ_task_id_blocks::1024          461                       # Occupied blocks per task id
system.cpu.icache.tags.age_task_id_blocks_1024::0           44                       # Occupied blocks per task id
system.cpu.icache.tags.age_task_id_blocks_1024::2            1                       # Occupied blocks per task id
system.cpu.icache.tags.age_task_id_blocks_1024::4          416                       # Occupied blocks per task id
system.cpu.icache.tags.occ_task_id_percent::1024     0.450195                       # Percentage of cache occupancy per task id
system.cpu.icache.tags.tag_accesses            262287                       # Number of tag accesses
system.cpu.icache.tags.data_accesses           262287                       # Number of data accesses
system.cpu.icache.tags.power_state.pwrStateResidencyTicks::UNDEFINED  13028214500                       # Cumulative time (in ticks) in various power states
system.cpu.interrupts.clk_domain.clock           8000                       # Clock period in ticks
system.cpu.itb.rdAccesses                           0                       # TLB accesses on read requests
system.cpu.itb.wrAccesses                      131040                       # TLB accesses on write requests
system.cpu.itb.rdMisses                             0                       # TLB misses on read requests
system.cpu.itb.wrMisses                           184                       # TLB misses on write requests
system.cpu.itb.walker.power_state.pwrStateResidencyTicks::UNDEFINED  13028214500                       # Cumulative time (in ticks) in various power states
system.cpu.itb_walker_cache.blocked_cycles::no_mshrs            0                       # number of cycles access was blocked
system.cpu.itb_walker_cache.blocked_cycles::no_targets            0                       # number of cycles access was blocked
system.cpu.itb_walker_cache.blocked::no_mshrs            0                       # number of cycles access was blocked
system.cpu.itb_walker_cache.blocked::no_targets            0                       # number of cycles access was blocked
system.cpu.itb_walker_cache.avg_blocked_cycles::no_mshrs          nan                       # average number of cycles each access was blocked
system.cpu.itb_walker_cache.avg_blocked_cycles::no_targets          nan                       # average number of cycles each access was blocked
system.cpu.itb_walker_cache.replacements            0                       # number of replacements
system.cpu.itb_walker_cache.power_state.pwrStateResidencyTicks::UNDEFINED  13028214500                       # Cumulative time (in ticks) in various power states
system.cpu.itb_walker_cache.tags.tagsinuse            0                       # Cycle average of tags in use
system.cpu.itb_walker_cache.tags.total_refs            0                       # Total number of references to valid blocks.
system.cpu.itb_walker_cache.tags.sampled_refs            0                       # Sample count of references to valid blocks.
system.cpu.itb_walker_cache.tags.avg_refs          nan                       # Average number of references to valid blocks.
system.cpu.itb_walker_cache.tags.warmup_cycle            0                       # Cycle when the warmup percentage was hit.
system.cpu.itb_walker_cache.tags.tag_accesses            0                       # Number of tag accesses
system.cpu.itb_walker_cache.tags.data_accesses            0                       # Number of data accesses
system.cpu.itb_walker_cache.tags.power_state.pwrStateResidencyTicks::UNDEFINED  13028214500                       # Cumulative time (in ticks) in various power states
system.cpu.lsq0.forwLoads                         194                       # Number of loads that had data forwarded from stores
system.cpu.lsq0.squashedLoads                    1866                       # Number of loads squashed
system.cpu.lsq0.ignoredResponses                    2                       # Number of memory responses ignored because the instruction is squashed
system.cpu.lsq0.memOrderViolation                  11                       # Number of memory ordering violations
system.cpu.lsq0.squashedStores                   8047                       # Number of stores squashed
system.cpu.lsq0.rescheduledLoads                    0                       # Number of loads that were rescheduled
system.cpu.lsq0.blockedByCache                     15                       # Number of times an access to memory failed due to the cache being blocked
system.cpu.power_state.pwrStateResidencyTicks::ON  13028214500                       # Cumulative time (in ticks) in various power states
system.cpu.rename.squashCycles                   1224                       # Number of cycles rename is squashing
system.cpu.rename.idleCycles                  1172114                       # Number of cycles rename is idle
system.cpu.rename.blockCycles                 6726301                       # Number of cycles rename is blocking
system.cpu.rename.serializeStallCycles             34                       # count of cycles rename stalledfor serializing inst
system.cpu.rename.runCycles                   1765501                       # Number of cycles rename is running
system.cpu.rename.unblockCycles              16352910                       # Number of cycles rename is unblocking
system.cpu.rename.renamedInsts               17865469                       # Number of instructions processed by rename
system.cpu.rename.ROBFullEvents                   755                       # Number of times rename has blocked due to ROB full
system.cpu.rename.IQFullEvents                  46945                       # Number of times rename has blocked due to IQ full
system.cpu.rename.LQFullEvents                      1                       # Number of times rename has blocked due to LQ full
system.cpu.rename.SQFullEvents               16095010                       # Number of times rename has blocked due to SQ full
system.cpu.rename.renamedOperands            22474232                       # Number of destination operands rename has renamed
system.cpu.rename.lookups                    45387437                       # Number of register rename lookups that rename has made
system.cpu.rename.intLookups                 22757952                       # Number of integer rename lookups
system.cpu.rename.fpLookups                   4376754                       # Number of floating rename lookups
system.cpu.rename.committedMaps              22385329                       # Number of HB maps that are committed
system.cpu.rename.undoneMaps                    88897                       # Number of HB maps that are undone due to squashing
system.cpu.rename.serializing                       3                       # count of serializing insts renamed
system.cpu.rename.tempSerializing                   3                       # count of temporary serializing insts renamed
system.cpu.rename.skidInsts                   8422242                       # count of insts added to the skid buffer
system.cpu.rob.reads                         43510943                       # The number of ROB reads
system.cpu.rob.writes                        35732013                       # The number of ROB writes
system.cpu.thread_0.numInsts                  9995921                       # Number of Instructions committed
system.cpu.thread_0.numOps                   17794161                       # Number of Ops committed
system.cpu.thread_0.numMemRefs                      0                       # Number of Memory References
system.cpu_clk_domain.clock                       500                       # Clock period in ticks
system.cpu_voltage_domain.voltage                   1                       # Voltage in Volts
system.l2.demand_hits::.cpu.inst                    4                       # number of demand (read+write) hits
system.l2.demand_hits::.cpu.data               761889                       # number of demand (read+write) hits
system.l2.demand_hits::total                   761893                       # number of demand (read+write) hits
system.l2.overall_hits::.cpu.inst                   4                       # number of overall hits
system.l2.overall_hits::.cpu.data              761889                       # number of overall hits
system.l2.overall_hits::total                  761893                       # number of overall hits
system.l2.demand_misses::.cpu.inst                482                       # number of demand (read+write) misses
system.l2.demand_misses::.cpu.data              16591                       # number of demand (read+write) misses
system.l2.demand_misses::total                  17073                       # number of demand (read+write) misses
system.l2.overall_misses::.cpu.inst               482                       # number of overall misses
system.l2.overall_misses::.cpu.data             16591                       # number of overall misses
system.l2.overall_misses::total                 17073                       # number of overall misses
system.l2.demand_miss_latency::.cpu.inst     39217000                       # number of demand (read+write) miss cycles
system.l2.demand_miss_latency::.cpu.data   1228124000                       # number of demand (read+write) miss cycles
system.l2.demand_miss_latency::total       1267341000                       # number of demand (read+write) miss cycles
system.l2.overall_miss_latency::.cpu.inst     39217000                       # number of overall miss cycles
system.l2.overall_miss_latency::.cpu.data   1228124000                       # number of overall miss cycles
system.l2.overall_miss_latency::total      1267341000                       # number of overall miss cycles
system.l2.demand_accesses::.cpu.inst              486                       # number of demand (read+write) accesses
system.l2.demand_accesses::.cpu.data           778480                       # number of demand (read+write) accesses
system.l2.demand_accesses::total               778966                       # number of demand (read+write) accesses
system.l2.overall_accesses::.cpu.inst             486                       # number of overall (read+write) accesses
system.l2.overall_accesses::.cpu.data          778480                       # number of overall (read+write) accesses
system.l2.overall_accesses::total              778966                       # number of overall (read+write) accesses
system.l2.demand_miss_rate::.cpu.inst        0.991770                       # miss rate for demand accesses
system.l2.demand_miss_rate::.cpu.data        0.021312                       # miss rate for demand accesses
system.l2.demand_miss_rate::total            0.021918                       # miss rate for demand accesses
system.l2.overall_miss_rate::.cpu.inst       0.991770                       # miss rate for overall accesses
system.l2.overall_miss_rate::.cpu.data       0.021312                       # miss rate for overall accesses
system.l2.overall_miss_rate::total           0.021918                       # miss rate for overall accesses
system.l2.demand_avg_miss_latency::.cpu.inst 81363.070539                       # average overall miss latency
system.l2.demand_avg_miss_latency::.cpu.data 74023.506721                       # average overall miss latency
system.l2.demand_avg_miss_latency::total 74230.715164                       # average overall miss latency
system.l2.overall_avg_miss_latency::.cpu.inst 81363.070539                       # average overall miss latency
system.l2.overall_avg_miss_latency::.cpu.data 74023.506721                       # average overall miss latency
system.l2.overall_avg_miss_latency::total 74230.715164                       # average overall miss latency
system.l2.blocked_cycles::no_mshrs                  0                       # number of cycles access was blocked
system.l2.blocked_cycles::no_targets                0                       # number of cycles access was blocked
[...]
system.mem_ctrls.dram.bw_total::.cpu.data     81501882                       # Total bandwidth to/from this memory (bytes/s)
system.mem_ctrls.dram.bw_total::total        87642401                       # Total bandwidth to/from this memory (bytes/s)
system.mem_ctrls.dram.readBursts                17028                       # Number of DRAM read bursts
system.mem_ctrls.dram.writeBursts                 747                       # Number of DRAM write bursts
system.mem_ctrls.dram.perBankRdBursts::0         1018                       # Per bank write bursts
system.mem_ctrls.dram.perBankRdBursts::1         1026                       # Per bank write bursts
system.mem_ctrls.dram.perBankRdBursts::2          941                       # Per bank write bursts
system.mem_ctrls.dram.perBankRdBursts::3          976                       # Per bank write bursts
system.mem_ctrls.dram.perBankRdBursts::4         1089                       # Per bank write bursts
system.mem_ctrls.dram.perBankRdBursts::5         1084                       # Per bank write bursts
system.mem_ctrls.dram.perBankRdBursts::6         1144                       # Per bank write bursts
system.mem_ctrls.dram.perBankRdBursts::7         1096                       # Per bank write bursts
system.mem_ctrls.dram.perBankRdBursts::8         1095                       # Per bank write bursts
system.mem_ctrls.dram.perBankRdBursts::9         1095                       # Per bank write bursts
system.mem_ctrls.dram.perBankRdBursts::10         1086                       # Per bank write bursts
system.mem_ctrls.dram.perBankRdBursts::11         1110                       # Per bank write bursts
system.mem_ctrls.dram.perBankRdBursts::12         1132                       # Per bank write bursts
system.mem_ctrls.dram.perBankRdBursts::13         1087                       # Per bank write bursts
system.mem_ctrls.dram.perBankRdBursts::14         1007                       # Per bank write bursts
system.mem_ctrls.dram.perBankRdBursts::15         1042                       # Per bank write bursts
system.mem_ctrls.dram.perBankWrBursts::0           32                       # Per bank write bursts
system.mem_ctrls.dram.perBankWrBursts::1           38                       # Per bank write bursts
system.mem_ctrls.dram.perBankWrBursts::2           31                       # Per bank write bursts
system.mem_ctrls.dram.perBankWrBursts::3           43                       # Per bank write bursts
system.mem_ctrls.dram.perBankWrBursts::4           57                       # Per bank write bursts
system.mem_ctrls.dram.perBankWrBursts::5           59                       # Per bank write bursts
system.mem_ctrls.dram.perBankWrBursts::6           44                       # Per bank write bursts
system.mem_ctrls.dram.perBankWrBursts::7           47                       # Per bank write bursts
system.mem_ctrls.dram.perBankWrBursts::8           43                       # Per bank write bursts
system.mem_ctrls.dram.perBankWrBursts::9           59                       # Per bank write bursts
system.mem_ctrls.dram.perBankWrBursts::10           55                       # Per bank write bursts
system.mem_ctrls.dram.perBankWrBursts::11           51                       # Per bank write bursts
system.mem_ctrls.dram.perBankWrBursts::12           60                       # Per bank write bursts
system.mem_ctrls.dram.perBankWrBursts::13           50                       # Per bank write bursts
system.mem_ctrls.dram.perBankWrBursts::14           33                       # Per bank write bursts
system.mem_ctrls.dram.perBankWrBursts::15           45                       # Per bank write bursts
system.mem_ctrls.dram.totQLat                81415000                       # Total ticks spent queuing
system.mem_ctrls.dram.totBusLat              85140000                       # Total ticks spent in databus transfers
system.mem_ctrls.dram.totMemAccLat          400690000                       # Total ticks spent from burst creation until serviced by the DRAM
system.mem_ctrls.dram.avgQLat                 4781.24                       # Average queueing delay per DRAM burst
system.mem_ctrls.dram.avgBusLat               5000.00                       # Average bus latency per DRAM burst
system.mem_ctrls.dram.avgMemAccLat           23531.24                       # Average memory access latency per DRAM burst
system.mem_ctrls.dram.readRowHits               15563                       # Number of row buffer hits during reads
system.mem_ctrls.dram.writeRowHits                551                       # Number of row buffer hits during writes
system.mem_ctrls.dram.readRowHitRate            91.40                       # Row buffer hit rate for reads
system.mem_ctrls.dram.writeRowHitRate           73.76                       # Row buffer hit rate for writes
system.mem_ctrls.dram.bytesPerActivate::samples         1651                       # Bytes accessed per row activation
system.mem_ctrls.dram.bytesPerActivate::mean   688.261660                       # Bytes accessed per row activation
system.mem_ctrls.dram.bytesPerActivate::gmean   503.067882                       # Bytes accessed per row activation
system.mem_ctrls.dram.bytesPerActivate::stdev   384.200868                       # Bytes accessed per row activation
system.mem_ctrls.dram.bytesPerActivate::0-127          181     10.96%     10.96% # Bytes accessed per row activation
system.mem_ctrls.dram.bytesPerActivate::128-255          174     10.54%     21.50% # Bytes accessed per row activation
system.mem_ctrls.dram.bytesPerActivate::256-383          104      6.30%     27.80% # Bytes accessed per row activation
system.mem_ctrls.dram.bytesPerActivate::384-511           80      4.85%     32.65% # Bytes accessed per row activation
system.mem_ctrls.dram.bytesPerActivate::512-639          158      9.57%     42.22% # Bytes accessed per row activation
system.mem_ctrls.dram.bytesPerActivate::640-767           44      2.67%     44.88% # Bytes accessed per row activation
system.mem_ctrls.dram.bytesPerActivate::768-895           38      2.30%     47.18% # Bytes accessed per row activation
system.mem_ctrls.dram.bytesPerActivate::896-1023           41      2.48%     49.67% # Bytes accessed per row activation
system.mem_ctrls.dram.bytesPerActivate::1024-1151          831     50.33%    100.00% # Bytes accessed per row activation
system.mem_ctrls.dram.bytesPerActivate::total         1651                       # Bytes accessed per row activation
system.mem_ctrls.dram.bytesRead               1089792                       # Total number of bytes read from DRAM
system.mem_ctrls.dram.bytesWritten              47808                       # Total number of bytes written to DRAM
system.mem_ctrls.dram.avgRdBW               83.648607                       # Average DRAM read bandwidth in MiBytes/s
system.mem_ctrls.dram.avgWrBW                3.669574                       # Average DRAM write bandwidth in MiBytes/s
system.mem_ctrls.dram.peakBW                 12800.00                       # Theoretical peak bandwidth in MiByte/s
system.mem_ctrls.dram.busUtil                    0.68                       # Data bus utilization in percentage
system.mem_ctrls.dram.busUtilRead                0.65                       # Data bus utilization in percentage for reads
system.mem_ctrls.dram.busUtilWrite               0.03                       # Data bus utilization in percentage for writes
system.mem_ctrls.dram.pageHitRate               90.66                       # Row buffer hit rate, read and write combined
system.mem_ctrls.dram.power_state.pwrStateResidencyTicks::UNDEFINED  13028214500                       # Cumulative time (in ticks) in various power states
system.mem_ctrls.dram.rank0.actEnergy         5940480                       # Energy for activate commands per rank (pJ)
system.mem_ctrls.dram.rank0.preEnergy         3134670                       # Energy for precharge commands per rank (pJ)
system.mem_ctrls.dram.rank0.readEnergy       59790360                       # Energy for read commands per rank (pJ)
system.mem_ctrls.dram.rank0.writeEnergy       1832220                       # Energy for write commands per rank (pJ)
system.mem_ctrls.dram.rank0.refreshEnergy 1028292720.000000                       # Energy for refresh commands per rank (pJ)
system.mem_ctrls.dram.rank0.actBackEnergy    683380980                       # Energy for active background per rank (pJ)
system.mem_ctrls.dram.rank0.preBackEnergy   4427355840                       # Energy for precharge background per rank (pJ)
system.mem_ctrls.dram.rank0.actPowerDownEnergy            0                       # Energy for active power-down per rank (pJ)
system.mem_ctrls.dram.rank0.prePowerDownEnergy            0                       # Energy for precharge power-down per rank (pJ)
system.mem_ctrls.dram.rank0.selfRefreshEnergy            0                       # Energy for self refresh per rank (pJ)
system.mem_ctrls.dram.rank0.totalEnergy    6209727270                       # Total energy per rank (pJ)
system.mem_ctrls.dram.rank0.averagePower   476.636861                       # Core power per rank (mW)
system.mem_ctrls.dram.rank0.totalIdleTime            0                       # Total Idle time Per DRAM Rank
system.mem_ctrls.dram.rank0.pwrStateTime::IDLE  11500283750                       # Time in different power states
system.mem_ctrls.dram.rank0.pwrStateTime::REF    434980000                       # Time in different power states
system.mem_ctrls.dram.rank0.pwrStateTime::SREF            0                       # Time in different power states
system.mem_ctrls.dram.rank0.pwrStateTime::PRE_PDN            0                       # Time in different power states
system.mem_ctrls.dram.rank0.pwrStateTime::ACT   1092950750                       # Time in different power states
system.mem_ctrls.dram.rank0.pwrStateTime::ACT_PDN            0                       # Time in different power states
system.mem_ctrls.dram.rank1.actEnergy         5919060                       # Energy for activate commands per rank (pJ)
system.mem_ctrls.dram.rank1.preEnergy         3130875                       # Energy for precharge commands per rank (pJ)
system.mem_ctrls.dram.rank1.readEnergy       61789560                       # Energy for read commands per rank (pJ)
system.mem_ctrls.dram.rank1.writeEnergy       2067120                       # Energy for write commands per rank (pJ)
system.mem_ctrls.dram.rank1.refreshEnergy 1028292720.000000                       # Energy for refresh commands per rank (pJ)
system.mem_ctrls.dram.rank1.actBackEnergy    698121750                       # Energy for active background per rank (pJ)
system.mem_ctrls.dram.rank1.preBackEnergy   4414942560                       # Energy for precharge background per rank (pJ)
system.mem_ctrls.dram.rank1.actPowerDownEnergy            0                       # Energy for active power-down per rank (pJ)
system.mem_ctrls.dram.rank1.prePowerDownEnergy            0                       # Energy for precharge power-down per rank (pJ)
system.mem_ctrls.dram.rank1.selfRefreshEnergy            0                       # Energy for self refresh per rank (pJ)
system.mem_ctrls.dram.rank1.totalEnergy    6214263645                       # Total energy per rank (pJ)
system.mem_ctrls.dram.rank1.averagePower   476.985058                       # Core power per rank (mW)
system.mem_ctrls.dram.rank1.totalIdleTime            0                       # Total Idle time Per DRAM Rank
system.mem_ctrls.dram.rank1.pwrStateTime::IDLE  11467588250                       # Time in different power states
system.mem_ctrls.dram.rank1.pwrStateTime::REF    434980000                       # Time in different power states
system.mem_ctrls.dram.rank1.pwrStateTime::SREF            0                       # Time in different power states
system.mem_ctrls.dram.rank1.pwrStateTime::PRE_PDN            0                       # Time in different power states
system.mem_ctrls.dram.rank1.pwrStateTime::ACT   1125646250                       # Time in different power states
system.mem_ctrls.dram.rank1.pwrStateTime::ACT_PDN            0                       # Time in different power states
system.mem_ctrls.power_state.pwrStateResidencyTicks::UNDEFINED  13028214500                       # Cumulative time (in ticks) in various power states
system.membus.trans_dist::ReadResp                608                       # Transaction distribution
system.membus.trans_dist::WritebackDirty          769                       # Transaction distribution
system.membus.trans_dist::CleanEvict               13                       # Transaction distribution
system.membus.trans_dist::ReadExReq             16464                       # Transaction distribution
system.membus.trans_dist::ReadExResp            16464                       # Transaction distribution
system.membus.trans_dist::ReadSharedReq           608                       # Transaction distribution
system.membus.pkt_count_system.l2.mem_side_port::system.mem_ctrls.port        34926                       # Packet count per connected requestor and responder (bytes)
system.membus.pkt_count_system.l2.mem_side_port::total        34926                       # Packet count per connected requestor and responder (bytes)
system.membus.pkt_count::total                  34926                       # Packet count per connected requestor and responder (bytes)
system.membus.pkt_size_system.l2.mem_side_port::system.mem_ctrls.port      1141824                       # Cumulative packet size per connected requestor and responder (bytes)
system.membus.pkt_size_system.l2.mem_side_port::total      1141824                       # Cumulative packet size per connected requestor and responder (bytes)
system.membus.pkt_size::total                 1141824                       # Cumulative packet size per connected requestor and responder (bytes)
system.membus.snoops                                0                       # Total snoops (count)
system.membus.snoopTraffic                          0                       # Total snoop traffic (bytes)
system.membus.snoop_fanout::samples             17072                       # Request fanout histogram
system.membus.snoop_fanout::mean                    0                       # Request fanout histogram
system.membus.snoop_fanout::stdev                   0                       # Request fanout histogram
system.membus.snoop_fanout::underflows              0      0.00%      0.00% # Request fanout histogram
system.membus.snoop_fanout::0                   17072    100.00%    100.00% # Request fanout histogram
system.membus.snoop_fanout::1                       0      0.00%    100.00% # Request fanout histogram
system.membus.snoop_fanout::overflows               0      0.00%    100.00% # Request fanout histogram
system.membus.snoop_fanout::min_value               0                       # Request fanout histogram
system.membus.snoop_fanout::max_value               0                       # Request fanout histogram
system.membus.snoop_fanout::total               17072                       # Request fanout histogram
system.membus.power_state.pwrStateResidencyTicks::UNDEFINED  13028214500                       # Cumulative time (in ticks) in various power states
system.membus.reqLayer2.occupancy            21206500                       # Layer occupancy (ticks)
system.membus.reqLayer2.utilization               0.2                       # Layer utilization (%)
system.membus.respLayer1.occupancy           89959750                       # Layer occupancy (ticks)
system.membus.respLayer1.utilization              0.7                       # Layer utilization (%)
system.tol2bus.trans_dist::ReadResp             16385                       # Transaction distribution
system.tol2bus.trans_dist::WritebackDirty       778146                       # Transaction distribution
system.tol2bus.trans_dist::WritebackClean           24                       # Transaction distribution
system.tol2bus.trans_dist::CleanEvict             186                       # Transaction distribution
system.tol2bus.trans_dist::ReadExReq           762580                       # Transaction distribution
system.tol2bus.trans_dist::ReadExResp          762580                       # Transaction distribution
system.tol2bus.trans_dist::ReadCleanReq           486                       # Transaction distribution
system.tol2bus.trans_dist::ReadSharedReq        15900                       # Transaction distribution
system.tol2bus.pkt_count_system.cpu.icache.mem_side_port::system.l2.cpu_side_port          995                       # Packet count per connected requestor and responder (bytes)
system.tol2bus.pkt_count_system.cpu.dcache.mem_side_port::system.l2.cpu_side_port      2334416                       # Packet count per connected requestor and responder (bytes)
system.tol2bus.pkt_count::total               2335411                       # Packet count per connected requestor and responder (bytes)
system.tol2bus.pkt_size_system.cpu.icache.mem_side_port::system.l2.cpu_side_port        32576                       # Cumulative packet size per connected requestor and responder (bytes)
system.tol2bus.pkt_size_system.cpu.dcache.mem_side_port::system.l2.cpu_side_port     99574848                       # Cumulative packet size per connected requestor and responder (bytes)
system.tol2bus.pkt_size::total               99607424                       # Cumulative packet size per connected requestor and responder (bytes)
system.tol2bus.snoops                             876                       # Total snoops (count)
system.tol2bus.snoopTraffic                     49216                       # Total snoop traffic (bytes)
system.tol2bus.snoop_fanout::samples           779842                       # Request fanout histogram
system.tol2bus.snoop_fanout::mean            0.000121                       # Request fanout histogram
system.tol2bus.snoop_fanout::stdev           0.010978                       # Request fanout histogram
system.tol2bus.snoop_fanout::underflows             0      0.00%      0.00% # Request fanout histogram
system.tol2bus.snoop_fanout::0                 779748     99.99%     99.99% # Request fanout histogram
system.tol2bus.snoop_fanout::1                     94      0.01%    100.00% # Request fanout histogram
system.tol2bus.snoop_fanout::2                      0      0.00%    100.00% # Request fanout histogram
system.tol2bus.snoop_fanout::3                      0      0.00%    100.00% # Request fanout histogram
system.tol2bus.snoop_fanout::4                      0      0.00%    100.00% # Request fanout histogram
system.tol2bus.snoop_fanout::overflows              0      0.00%    100.00% # Request fanout histogram
system.tol2bus.snoop_fanout::min_value              0                       # Request fanout histogram
system.tol2bus.snoop_fanout::max_value              1                       # Request fanout histogram
system.tol2bus.snoop_fanout::total             779842                       # Request fanout histogram
system.tol2bus.power_state.pwrStateResidencyTicks::UNDEFINED  13028214500                       # Cumulative time (in ticks) in various power states
system.tol2bus.reqLayer0.occupancy         1555624000                       # Layer occupancy (ticks)
system.tol2bus.reqLayer0.utilization             11.9                       # Layer utilization (%)
system.tol2bus.respLayer0.occupancy            727500                       # Layer occupancy (ticks)
system.tol2bus.respLayer0.utilization             0.0                       # Layer utilization (%)
system.tol2bus.respLayer1.occupancy        1167720000                       # Layer occupancy (ticks)
system.tol2bus.respLayer1.utilization             9.0                       # Layer utilization (%)
system.voltage_domain.voltage                       1                       # Voltage in Volts

---------- End Simulation Statistics   ----------
