
---------- Begin Simulation Statistics ----------
final_tick                                   35816500                       # Number of ticks from beginning of simulation (restored from checkpoints and never reset)
host_inst_rate                                  63624                       # Simulator instruction rate (inst/s)
host_mem_usage                                 653560                       # Number of bytes of host memory used
host_op_rate                                   123471                       # Simulator op (including micro ops) rate (op/s)
host_seconds                                     0.13                       # Real time elapsed on the host
host_tick_rate                              284772586                       # Simulator tick rate (ticks/s)
sim_freq                                 1000000000000                       # Frequency of simulated ticks
sim_insts                                        7992                       # Number of instructions simulated
sim_ops                                         15527                       # Number of ops (including micro ops) simulated
sim_seconds                                  0.000036                       # Number of seconds simulated
sim_ticks                                    35816500                       # Number of ticks simulated
system.cpu.cc_regfile_reads                     10466                       # number of cc regfile reads
system.cpu.cc_regfile_writes                     6832                       # number of cc regfile writes
system.cpu.committedInsts                        7992                       # Number of Instructions Simulated
system.cpu.committedOps                         15527                       # Number of Ops (including micro ops) Simulated
system.cpu.cpi                               8.963213                       # CPI: Cycles Per Instruction
system.cpu.cpi_total                         8.963213                       # CPI: Total CPI of All Threads
system.cpu.fp_regfile_reads                      1509                       # number of floating regfile reads
system.cpu.fp_regfile_writes                      696                       # number of floating regfile writes
system.cpu.idleCycles                           36945                       # Total number of cycles that the CPU has spent unscheduled due to idling
system.cpu.iew.branchMispredicts                  675                       # Number of branch mispredicts detected at execute
system.cpu.iew.exec_branches                     2319                       # Number of branches executed
system.cpu.iew.exec_nop                             0                       # number of nop insts executed
system.cpu.iew.exec_rate                     0.337200                       # Inst execution rate
system.cpu.iew.exec_refs                         4729                       # number of memory reference insts executed
system.cpu.iew.exec_stores                       2142                       # Number of stores executed
system.cpu.iew.exec_swp                             0                       # number of swp insts executed
system.cpu.iew.iewBlockCycles                    2630                       # Number of cycles IEW is blocking
system.cpu.iew.iewDispLoadInsts                  2986                       # Number of dispatched load instructions
system.cpu.iew.iewDispNonSpecInsts                  1                       # Number of dispatched non-speculative instructions
system.cpu.iew.iewDispSquashedInsts                32                       # Number of squashed instructions skipped by dispatch
system.cpu.iew.iewDispStoreInsts                 2573                       # Number of dispatched store instructions
system.cpu.iew.iewDispatchedInsts               27748                       # Number of instructions dispatched to IQ
system.cpu.iew.iewExecLoadInsts                  2587                       # Number of load instructions executed
system.cpu.iew.iewExecSquashedInsts               865                       # Number of squashed instructions skipped in execute
system.cpu.iew.iewExecutedInsts                 24155                       # Number of executed instructions
system.cpu.iew.iewIQFullEvents                     16                       # Number of times the IQ has become full, causing a stall
system.cpu.iew.iewIdleCycles                        0                       # Number of cycles IEW is idle
system.cpu.iew.iewLSQFullEvents                  1313                       # Number of times the LSQ has become full, causing a stall
system.cpu.iew.iewSquashCycles                    597                       # Number of cycles IEW is squashing
system.cpu.iew.iewUnblockCycles                  1333                       # Number of cycles IEW is unblocking
system.cpu.iew.memOrderViolationEvents             11                       # Number of memory order violations
system.cpu.iew.predictedNotTakenIncorrect          632                       # Number of branches that were predicted not taken incorrectly
system.cpu.iew.predictedTakenIncorrect             43                       # Number of branches that were predicted taken incorrectly
system.cpu.iew.wb_consumers                     23781                       # num instructions consuming a value
system.cpu.iew.wb_count                         23465                       # cumulative count of insts written-back
system.cpu.iew.wb_fanout                     0.666036                       # average fanout of values written-back
system.cpu.iew.wb_producers                     15839                       # num instructions producing a value
system.cpu.iew.wb_rate                       0.327568                       # insts written-back per cycle
system.cpu.iew.wb_sent                          23795                       # cumulative count of insts sent to commit
system.cpu.int_regfile_reads                    32124                       # number of integer regfile reads
system.cpu.int_regfile_writes                   17961                       # number of integer regfile writes
system.cpu.ipc                               0.111567                       # IPC: Instructions Per Cycle
system.cpu.ipc_total                         0.111567                       # IPC: Total IPC of All Threads
system.cpu.iq.FU_type_0::No_OpClass               761      3.04%      3.04% # Type of FU issued
system.cpu.iq.FU_type_0::IntAlu                 18674     74.64%     77.68% # Type of FU issued
system.cpu.iq.FU_type_0::IntMult                    6      0.02%     77.70% # Type of FU issued
system.cpu.iq.FU_type_0::IntDiv                    28      0.11%     77.81% # Type of FU issued
system.cpu.iq.FU_type_0::FloatAdd                 136      0.54%     78.36% # Type of FU issued
system.cpu.iq.FU_type_0::FloatCmp                   0      0.00%     78.36% # Type of FU issued
system.cpu.iq.FU_type_0::FloatCvt                   0      0.00%     78.36% # Type of FU issued
system.cpu.iq.FU_type_0::FloatMult                  0      0.00%     78.36% # Type of FU issued
system.cpu.iq.FU_type_0::FloatMultAcc               0      0.00%     78.36% # Type of FU issued
system.cpu.iq.FU_type_0::FloatDiv                   0      0.00%     78.36% # Type of FU issued
system.cpu.iq.FU_type_0::FloatMisc                  0      0.00%     78.36% # Type of FU issued
system.cpu.iq.FU_type_0::FloatSqrt                  0      0.00%     78.36% # Type of FU issued
system.cpu.iq.FU_type_0::SimdAdd                    0      0.00%     78.36% # Type of FU issued
system.cpu.iq.FU_type_0::SimdAddAcc                 0      0.00%     78.36% # Type of FU issued
system.cpu.iq.FU_type_0::SimdAlu                  154      0.62%     78.97% # Type of FU issued
system.cpu.iq.FU_type_0::SimdCmp                    0      0.00%     78.97% # Type of FU issued
system.cpu.iq.FU_type_0::SimdCvt                   48      0.19%     79.16% # Type of FU issued
system.cpu.iq.FU_type_0::SimdMisc                 218      0.87%     80.04% # Type of FU issued
system.cpu.iq.FU_type_0::SimdMult                   0      0.00%     80.04% # Type of FU issued
system.cpu.iq.FU_type_0::SimdMultAcc                0      0.00%     80.04% # Type of FU issued
system.cpu.iq.FU_type_0::SimdShift                  0      0.00%     80.04% # Type of FU issued
system.cpu.iq.FU_type_0::SimdShiftAcc               0      0.00%     80.04% # Type of FU issued
system.cpu.iq.FU_type_0::SimdDiv                    0      0.00%     80.04% # Type of FU issued
system.cpu.iq.FU_type_0::SimdSqrt                   0      0.00%     80.04% # Type of FU issued
system.cpu.iq.FU_type_0::SimdFloatAdd               0      0.00%     80.04% # Type of FU issued
system.cpu.iq.FU_type_0::SimdFloatAlu               0      0.00%     80.04% # Type of FU issued
system.cpu.iq.FU_type_0::SimdFloatCmp               0      0.00%     80.04% # Type of FU issued
system.cpu.iq.FU_type_0::SimdFloatCvt               0      0.00%     80.04% # Type of FU issued
system.cpu.iq.FU_type_0::SimdFloatDiv               0      0.00%     80.04% # Type of FU issued
system.cpu.iq.FU_type_0::SimdFloatMisc              0      0.00%     80.04% # Type of FU issued
system.cpu.iq.FU_type_0::SimdFloatMult              0      0.00%     80.04% # Type of FU issued
system.cpu.iq.FU_type_0::SimdFloatMultAcc            0      0.00%     80.04% # Type of FU issued
system.cpu.iq.FU_type_0::SimdFloatSqrt              0      0.00%     80.04% # Type of FU issued
system.cpu.iq.FU_type_0::SimdReduceAdd              0      0.00%     80.04% # Type of FU issued
system.cpu.iq.FU_type_0::SimdReduceAlu              0      0.00%     80.04% # Type of FU issued
system.cpu.iq.FU_type_0::SimdReduceCmp              0      0.00%     80.04% # Type of FU issued
system.cpu.iq.FU_type_0::SimdFloatReduceAdd            0      0.00%     80.04% # Type of FU issued
system.cpu.iq.FU_type_0::SimdFloatReduceCmp            0      0.00%     80.04% # Type of FU issued
system.cpu.iq.FU_type_0::SimdAes                    0      0.00%     80.04% # Type of FU issued
system.cpu.iq.FU_type_0::SimdAesMix                 0      0.00%     80.04% # Type of FU issued
system.cpu.iq.FU_type_0::SimdSha1Hash               0      0.00%     80.04% # Type of FU issued
system.cpu.iq.FU_type_0::SimdSha1Hash2              0      0.00%     80.04% # Type of FU issued
system.cpu.iq.FU_type_0::SimdSha256Hash             0      0.00%     80.04% # Type of FU issued
system.cpu.iq.FU_type_0::SimdSha256Hash2            0      0.00%     80.04% # Type of FU issued
system.cpu.iq.FU_type_0::SimdShaSigma2              0      0.00%     80.04% # Type of FU issued
system.cpu.iq.FU_type_0::SimdShaSigma3              0      0.00%     80.04% # Type of FU issued
system.cpu.iq.FU_type_0::SimdPredAlu                0      0.00%     80.04% # Type of FU issued
system.cpu.iq.FU_type_0::MemRead                 2720     10.87%     90.91% # Type of FU issued
system.cpu.iq.FU_type_0::MemWrite                1693      6.77%     97.67% # Type of FU issued
system.cpu.iq.FU_type_0::FloatMemRead              54      0.22%     97.89% # Type of FU issued
system.cpu.iq.FU_type_0::FloatMemWrite            528      2.11%    100.00% # Type of FU issued
system.cpu.iq.FU_type_0::IprAccess                  0      0.00%    100.00% # Type of FU issued
system.cpu.iq.FU_type_0::InstPrefetch               0      0.00%    100.00% # Type of FU issued
system.cpu.iq.FU_type_0::total                  25020                       # Type of FU issued
system.cpu.iq.fp_alu_accesses                    1301                       # Number of floating point alu accesses
system.cpu.iq.fp_inst_queue_reads                2585                       # Number of floating instruction queue reads
system.cpu.iq.fp_inst_queue_wakeup_accesses         1263                       # Number of floating instruction queue wakeup accesses
system.cpu.iq.fp_inst_queue_writes               1455                       # Number of floating instruction queue writes
system.cpu.iq.fu_busy_cnt                         299                       # FU busy when requested
system.cpu.iq.fu_busy_rate                   0.011950                       # FU busy rate (busy events/executed inst)
system.cpu.iq.fu_full::No_OpClass                   0      0.00%      0.00% # attempts to use FU when none available
system.cpu.iq.fu_full::IntAlu                     221     73.91%     73.91% # attempts to use FU when none available
system.cpu.iq.fu_full::IntMult                      0      0.00%     73.91% # attempts to use FU when none available
system.cpu.iq.fu_full::IntDiv                       0      0.00%     73.91% # attempts to use FU when none available
system.cpu.iq.fu_full::FloatAdd                     0      0.00%     73.91% # attempts to use FU when none available
system.cpu.iq.fu_full::FloatCmp                     0      0.00%     73.91% # attempts to use FU when none available
system.cpu.iq.fu_full::FloatCvt                     0      0.00%     73.91% # attempts to use FU when none available
system.cpu.iq.fu_full::FloatMult                    0      0.00%     73.91% # attempts to use FU when none available
system.cpu.iq.fu_full::FloatMultAcc                 0      0.00%     73.91% # attempts to use FU when none available
system.cpu.iq.fu_full::FloatDiv                     0      0.00%     73.91% # attempts to use FU when none available
system.cpu.iq.fu_full::FloatMisc                    0      0.00%     73.91% # attempts to use FU when none available
system.cpu.iq.fu_full::FloatSqrt                    0      0.00%     73.91% # attempts to use FU when none available
system.cpu.iq.fu_full::SimdAdd                      0      0.00%     73.91% # attempts to use FU when none available
system.cpu.iq.fu_full::SimdAddAcc                   0      0.00%     73.91% # attempts to use FU when none available
system.cpu.iq.fu_full::SimdAlu                     11      3.68%     77.59% # attempts to use FU when none available
system.cpu.iq.fu_full::SimdCmp                      0      0.00%     77.59% # attempts to use FU when none available
system.cpu.iq.fu_full::SimdCvt                      1      0.33%     77.93% # attempts to use FU when none available
system.cpu.iq.fu_full::SimdMisc                     2      0.67%     78.60% # attempts to use FU when none available
system.cpu.iq.fu_full::SimdMult                     0      0.00%     78.60% # attempts to use FU when none available
system.cpu.iq.fu_full::SimdMultAcc                  0      0.00%     78.60% # attempts to use FU when none available
system.cpu.iq.fu_full::SimdShift                    0      0.00%     78.60% # attempts to use FU when none available
system.cpu.iq.fu_full::SimdShiftAcc                 0      0.00%     78.60% # attempts to use FU when none available
system.cpu.iq.fu_full::SimdDiv                      0      0.00%     78.60% # attempts to use FU when none available
system.cpu.iq.fu_full::SimdSqrt                     0      0.00%     78.60% # attempts to use FU when none available
system.cpu.iq.fu_full::SimdFloatAdd                 0      0.00%     78.60% # attempts to use FU when none available
system.cpu.iq.fu_full::SimdFloatAlu                 0      0.00%     78.60% # attempts to use FU when none available
system.cpu.iq.fu_full::SimdFloatCmp                 0      0.00%     78.60% # attempts to use FU when none available
system.cpu.iq.fu_full::SimdFloatCvt                 0      0.00%     78.60% # attempts to use FU when none available
system.cpu.iq.fu_full::SimdFloatDiv                 0      0.00%     78.60% # attempts to use FU when none available
system.cpu.iq.fu_full::SimdFloatMisc                0      0.00%     78.60% # attempts to use FU when none available
system.cpu.iq.fu_full::SimdFloatMult                0      0.00%     78.60% # attempts to use FU when none available
system.cpu.iq.fu_full::SimdFloatMultAcc             0      0.00%     78.60% # attempts to use FU when none available
system.cpu.iq.fu_full::SimdFloatSqrt                0      0.00%     78.60% # attempts to use FU when none available
system.cpu.iq.fu_full::SimdReduceAdd                0      0.00%     78.60% # attempts to use FU when none available
system.cpu.iq.fu_full::SimdReduceAlu                0      0.00%     78.60% # attempts to use FU when none available
system.cpu.iq.fu_full::SimdReduceCmp                0      0.00%     78.60% # attempts to use FU when none available
system.cpu.iq.fu_full::SimdFloatReduceAdd            0      0.00%     78.60% # attempts to use FU when none available
system.cpu.iq.fu_full::SimdFloatReduceCmp            0      0.00%     78.60% # attempts to use FU when none available
system.cpu.iq.fu_full::SimdAes                      0      0.00%     78.60% # attempts to use FU when none available
system.cpu.iq.fu_full::SimdAesMix                   0      0.00%     78.60% # attempts to use FU when none available
system.cpu.iq.fu_full::SimdSha1Hash                 0      0.00%     78.60% # attempts to use FU when none available
system.cpu.iq.fu_full::SimdSha1Hash2                0      0.00%     78.60% # attempts to use FU when none available
system.cpu.iq.fu_full::SimdSha256Hash               0      0.00%     78.60% # attempts to use FU when none available
system.cpu.iq.fu_full::SimdSha256Hash2              0      0.00%     78.60% # attempts to use FU when none available
system.cpu.iq.fu_full::SimdShaSigma2                0      0.00%     78.60% # attempts to use FU when none available
system.cpu.iq.fu_full::SimdShaSigma3                0      0.00%     78.60% # attempts to use FU when none available
system.cpu.iq.fu_full::SimdPredAlu                  0      0.00%     78.60% # attempts to use FU when none available
system.cpu.iq.fu_full::MemRead                     34     11.37%     89.97% # attempts to use FU when none available
system.cpu.iq.fu_full::MemWrite                    21      7.02%     96.99% # attempts to use FU when none available
system.cpu.iq.fu_full::FloatMemRead                 2      0.67%     97.66% # attempts to use FU when none available
system.cpu.iq.fu_full::FloatMemWrite                7      2.34%    100.00% # attempts to use FU when none available
system.cpu.iq.fu_full::IprAccess                    0      0.00%    100.00% # attempts to use FU when none available
system.cpu.iq.fu_full::InstPrefetch                 0      0.00%    100.00% # attempts to use FU when none available
system.cpu.iq.int_alu_accesses                  23257                       # Number of integer alu accesses
system.cpu.iq.int_inst_queue_reads              82494                       # Number of integer instruction queue reads
system.cpu.iq.int_inst_queue_wakeup_accesses        22202                       # Number of integer instruction queue wakeup accesses
system.cpu.iq.int_inst_queue_writes             38518                       # Number of integer instruction queue writes
system.cpu.iq.iqInstsAdded                      27745                       # Number of instructions added to the IQ (excludes non-spec)
system.cpu.iq.iqInstsIssued                     25020                       # Number of instructions issued
system.cpu.iq.iqNonSpecInstsAdded                   3                       # Number of non-speculative instructions added to the IQ
system.cpu.iq.iqSquashedInstsExamined           12215                       # Number of squashed instructions iterated over during squash; mainly for profiling
system.cpu.iq.iqSquashedInstsIssued                51                       # Number of squashed instructions issued
system.cpu.iq.iqSquashedNonSpecRemoved              3                       # Number of squashed non-spec instructions that were removed
system.cpu.iq.iqSquashedOperandsExamined        13541                       # Number of squashed operands that are examined and possibly removed from graph
system.cpu.iq.issued_per_cycle::samples         34689                       # Number of insts issued each cycle
system.cpu.iq.issued_per_cycle::mean         0.721266                       # Number of insts issued each cycle
system.cpu.iq.issued_per_cycle::stdev        1.678597                       # Number of insts issued each cycle
system.cpu.iq.issued_per_cycle::underflows            0      0.00%      0.00% # Number of insts issued each cycle
system.cpu.iq.issued_per_cycle::0               27280     78.64%     78.64% # Number of insts issued each cycle
system.cpu.iq.issued_per_cycle::1                1811      5.22%     83.86% # Number of insts issued each cycle
system.cpu.iq.issued_per_cycle::2                1368      3.94%     87.81% # Number of insts issued each cycle
system.cpu.iq.issued_per_cycle::3                 997      2.87%     90.68% # Number of insts issued each cycle
system.cpu.iq.issued_per_cycle::4                 966      2.78%     93.46% # Number of insts issued each cycle
system.cpu.iq.issued_per_cycle::5                 889      2.56%     96.03% # Number of insts issued each cycle
system.cpu.iq.issued_per_cycle::6                 711      2.05%     98.08% # Number of insts issued each cycle
system.cpu.iq.issued_per_cycle::7                 429      1.24%     99.31% # Number of insts issued each cycle
system.cpu.iq.issued_per_cycle::8                 238      0.69%    100.00% # Number of insts issued each cycle
system.cpu.iq.issued_per_cycle::overflows            0      0.00%    100.00% # Number of insts issued each cycle
system.cpu.iq.issued_per_cycle::min_value            0                       # Number of insts issued each cycle
system.cpu.iq.issued_per_cycle::max_value            8                       # Number of insts issued each cycle
system.cpu.iq.issued_per_cycle::total           34689                       # Number of insts issued each cycle
system.cpu.iq.rate                           0.349275                       # Inst issue rate
system.cpu.iq.vec_alu_accesses                      0                       # Number of vector alu accesses
system.cpu.iq.vec_inst_queue_reads                  0                       # Number of vector instruction queue reads
system.cpu.iq.vec_inst_queue_wakeup_accesses            0                       # Number of vector instruction queue wakeup accesses
system.cpu.iq.vec_inst_queue_writes                 0                       # Number of vector instruction queue writes
system.cpu.memDep0.conflictingLoads                24                       # Number of conflicting loads.
system.cpu.memDep0.conflictingStores                4                       # Number of conflicting stores.
system.cpu.memDep0.insertedLoads                 2986                       # Number of loads inserted to the mem dependence unit.
system.cpu.memDep0.insertedStores                2573                       # Number of stores inserted to the mem dependence unit.
system.cpu.misc_regfile_reads                   10375                       # number of misc regfile reads
system.cpu.numCycles                            71634                       # number of cpu cycles simulated
system.cpu.numWorkItemsCompleted                    0                       # number of work items this cpu completed
system.cpu.numWorkItemsStarted                      0                       # number of work items this cpu started
system.cpu.timesIdled                             295                       # Number of times that the entire CPU went into an idle state and unscheduled itself
system.cpu.workload.numSyscalls                    10                       # Number of system calls
system.membus.snoop_filter.hit_multi_requests            0                       # Number of requests hitting in the snoop filter with multiple (>1) holders of the requested data.
system.membus.snoop_filter.hit_multi_snoops            0                       # Number of snoops hitting in the snoop filter with multiple (>1) holders of the requested data.
system.membus.snoop_filter.hit_single_requests            2                       # Number of requests hitting in the snoop filter with a single holder of the requested data.
system.membus.snoop_filter.hit_single_snoops            0                       # Number of snoops hitting in the snoop filter with a single holder of the requested data.
system.membus.snoop_filter.tot_requests           692                       # Total number of requests made to the snoop filter.
system.membus.snoop_filter.tot_snoops               0                       # Total number of snoops made to the snoop filter.
system.tol2bus.snoop_filter.hit_multi_requests            0                       # Number of requests hitting in the snoop filter with multiple (>1) holders of the requested data.
system.tol2bus.snoop_filter.hit_multi_snoops            0                       # Number of snoops hitting in the snoop filter with multiple (>1) holders of the requested data.
system.tol2bus.snoop_filter.hit_single_requests           47                       # Number of requests hitting in the snoop filter with a single holder of the requested data.
system.tol2bus.snoop_filter.hit_single_snoops           55                       # Number of snoops hitting in the snoop filter with a single holder of the requested data.
system.tol2bus.snoop_filter.tot_requests          752                       # Total number of requests made to the snoop filter.
system.tol2bus.snoop_filter.tot_snoops             55                       # Total number of snoops made to the snoop filter.
system.clk_domain.clock                          1000                       # Clock period in ticks
system.cpu.branchPred.lookups                    3886                       # Number of BP lookups
system.cpu.branchPred.condPredicted              2694                       # Number of conditional branches predicted
system.cpu.branchPred.condIncorrect               657                       # Number of conditional branches incorrect
system.cpu.branchPred.BTBLookups                 1781                       # Number of BTB lookups
system.cpu.branchPred.BTBHits                    1048                       # Number of BTB hits
system.cpu.branchPred.BTBHitPct             58.843346                       # BTB Hit Percentage
system.cpu.branchPred.RASUsed                     295                       # Number of times the RAS was used to get a target.
system.cpu.branchPred.RASIncorrect                  0                       # Number of incorrect RAS predictions.
system.cpu.branchPred.indirectLookups             282                       # Number of indirect predictor lookups.
system.cpu.branchPred.indirectHits                 12                       # Number of indirect target hits.
system.cpu.branchPred.indirectMisses              270                       # Number of indirect misses.
system.cpu.branchPred.indirectMispredicted           90                       # Number of mispredicted indirect branches.
system.cpu.commit.commitSquashedInsts           12005                       # The number of squashed insts skipped by commit
system.cpu.commit.branchMispredicts               575                       # The number of times a branch was mispredicted
system.cpu.commit.numCommittedDist::samples        32739                       # Number of insts commited each cycle
system.cpu.commit.numCommittedDist::mean     0.474266                       # Number of insts commited each cycle
system.cpu.commit.numCommittedDist::stdev     1.406667                       # Number of insts commited each cycle
system.cpu.commit.numCommittedDist::underflows            0      0.00%      0.00% # Number of insts commited each cycle
system.cpu.commit.numCommittedDist::0           27735     84.72%     84.72% # Number of insts commited each cycle
system.cpu.commit.numCommittedDist::1            1500      4.58%     89.30% # Number of insts commited each cycle
system.cpu.commit.numCommittedDist::2             963      2.94%     92.24% # Number of insts commited each cycle
system.cpu.commit.numCommittedDist::3             949      2.90%     95.14% # Number of insts commited each cycle
system.cpu.commit.numCommittedDist::4             533      1.63%     96.77% # Number of insts commited each cycle
system.cpu.commit.numCommittedDist::5             316      0.97%     97.73% # Number of insts commited each cycle
system.cpu.commit.numCommittedDist::6             150      0.46%     98.19% # Number of insts commited each cycle
system.cpu.commit.numCommittedDist::7             102      0.31%     98.50% # Number of insts commited each cycle
system.cpu.commit.numCommittedDist::8             491      1.50%    100.00% # Number of insts commited each cycle
system.cpu.commit.numCommittedDist::overflows            0      0.00%    100.00% # Number of insts commited each cycle
system.cpu.commit.numCommittedDist::min_value            0                       # Number of insts commited each cycle
system.cpu.commit.numCommittedDist::max_value            8                       # Number of insts commited each cycle
system.cpu.commit.numCommittedDist::total        32739                       # Number of insts commited each cycle
system.cpu.commit.instsCommitted                 7992                       # Number of instructions committed
system.cpu.commit.opsCommitted                  15527                       # Number of ops (including micro ops) committed
system.cpu.commit.memRefs                        3062                       # Number of memory references committed
system.cpu.commit.loads                          1477                       # Number of loads committed
system.cpu.commit.amos                              0                       # Number of atomic instructions committed
system.cpu.commit.membars                           0                       # Number of memory barriers committed
system.cpu.commit.branches                       1652                       # Number of branches committed
system.cpu.commit.vector                            0                       # Number of committed Vector instructions.
system.cpu.commit.floating                       1133                       # Number of committed floating point instructions.
system.cpu.commit.integer                       14787                       # Number of committed integer instructions.
system.cpu.commit.functionCalls                   143                       # Number of function calls committed.
system.cpu.commit.committedInstType_0::No_OpClass          279      1.80%      1.80% # Class of committed instruction
system.cpu.commit.committedInstType_0::IntAlu        11670     75.16%     76.96% # Class of committed instruction
system.cpu.commit.committedInstType_0::IntMult            5      0.03%     76.99% # Class of committed instruction
system.cpu.commit.committedInstType_0::IntDiv           21      0.14%     77.12% # Class of committed instruction
system.cpu.commit.committedInstType_0::FloatAdd          135      0.87%     77.99% # Class of committed instruction
system.cpu.commit.committedInstType_0::FloatCmp            0      0.00%     77.99% # Class of committed instruction
system.cpu.commit.committedInstType_0::FloatCvt            0      0.00%     77.99% # Class of committed instruction
system.cpu.commit.committedInstType_0::FloatMult            0      0.00%     77.99% # Class of committed instruction
system.cpu.commit.committedInstType_0::FloatMultAcc            0      0.00%     77.99% # Class of committed instruction
system.cpu.commit.committedInstType_0::FloatDiv            0      0.00%     77.99% # Class of committed instruction
system.cpu.commit.committedInstType_0::FloatMisc            0      0.00%     77.99% # Class of committed instruction
system.cpu.commit.committedInstType_0::FloatSqrt            0      0.00%     77.99% # Class of committed instruction
system.cpu.commit.committedInstType_0::SimdAdd            0      0.00%     77.99% # Class of committed instruction
system.cpu.commit.committedInstType_0::SimdAddAcc            0      0.00%     77.99% # Class of committed instruction
system.cpu.commit.committedInstType_0::SimdAlu           94      0.61%     78.60% # Class of committed instruction
system.cpu.commit.committedInstType_0::SimdCmp            0      0.00%     78.60% # Class of committed instruction
system.cpu.commit.committedInstType_0::SimdCvt           46      0.30%     78.89% # Class of committed instruction
system.cpu.commit.committedInstType_0::SimdMisc          215      1.38%     80.28% # Class of committed instruction
system.cpu.commit.committedInstType_0::SimdMult            0      0.00%     80.28% # Class of committed instruction
system.cpu.commit.committedInstType_0::SimdMultAcc            0      0.00%     80.28% # Class of committed instruction
system.cpu.commit.committedInstType_0::SimdShift            0      0.00%     80.28% # Class of committed instruction
system.cpu.commit.committedInstType_0::SimdShiftAcc            0      0.00%     80.28% # Class of committed instruction
system.cpu.commit.committedInstType_0::SimdDiv            0      0.00%     80.28% # Class of committed instruction
system.cpu.commit.committedInstType_0::SimdSqrt            0      0.00%     80.28% # Class of committed instruction
system.cpu.commit.committedInstType_0::SimdFloatAdd            0      0.00%     80.28% # Class of committed instruction
system.cpu.commit.committedInstType_0::SimdFloatAlu            0      0.00%     80.28% # Class of committed instruction
system.cpu.commit.committedInstType_0::SimdFloatCmp            0      0.00%     80.28% # Class of committed instruction
system.cpu.commit.committedInstType_0::SimdFloatCvt            0      0.00%     80.28% # Class of committed instruction
system.cpu.commit.committedInstType_0::SimdFloatDiv            0      0.00%     80.28% # Class of committed instruction
system.cpu.commit.committedInstType_0::SimdFloatMisc            0      0.00%     80.28% # Class of committed instruction
system.cpu.commit.committedInstType_0::SimdFloatMult            0      0.00%     80.28% # Class of committed instruction
system.cpu.commit.committedInstType_0::SimdFloatMultAcc            0      0.00%     80.28% # Class of committed instruction
system.cpu.commit.committedInstType_0::SimdFloatSqrt            0      0.00%     80.28% # Class of committed instruction
system.cpu.commit.committedInstType_0::SimdReduceAdd            0      0.00%     80.28% # Class of committed instruction
system.cpu.commit.committedInstType_0::SimdReduceAlu            0      0.00%     80.28% # Class of committed instruction
system.cpu.commit.committedInstType_0::SimdReduceCmp            0      0.00%     80.28% # Class of committed instruction
system.cpu.commit.committedInstType_0::SimdFloatReduceAdd            0      0.00%     80.28% # Class of committed instruction
system.cpu.commit.committedInstType_0::SimdFloatReduceCmp            0      0.00%     80.28% # Class of committed instruction
system.cpu.commit.committedInstType_0::SimdAes            0      0.00%     80.28% # Class of committed instruction
system.cpu.commit.committedInstType_0::SimdAesMix            0      0.00%     80.28% # Class of committed instruction
system.cpu.commit.committedInstType_0::SimdSha1Hash            0      0.00%     80.28% # Class of committed instruction
system.cpu.commit.committedInstType_0::SimdSha1Hash2            0      0.00%     80.28% # Class of committed instruction
system.cpu.commit.committedInstType_0::SimdSha256Hash            0      0.00%     80.28% # Class of committed instruction
system.cpu.commit.committedInstType_0::SimdSha256Hash2            0      0.00%     80.28% # Class of committed instruction
system.cpu.commit.committedInstType_0::SimdShaSigma2            0      0.00%     80.28% # Class of committed instruction
system.cpu.commit.committedInstType_0::SimdShaSigma3            0      0.00%     80.28% # Class of committed instruction
system.cpu.commit.committedInstType_0::SimdPredAlu            0      0.00%     80.28% # Class of committed instruction
system.cpu.commit.committedInstType_0::MemRead         1431      9.22%     89.50% # Class of committed instruction
system.cpu.commit.committedInstType_0::MemWrite         1127      7.26%     96.75% # Class of committed instruction
system.cpu.commit.committedInstType_0::FloatMemRead           46      0.30%     97.05% # Class of committed instruction
system.cpu.commit.committedInstType_0::FloatMemWrite          458      2.95%    100.00% # Class of committed instruction
system.cpu.commit.committedInstType_0::IprAccess            0      0.00%    100.00% # Class of committed instruction
system.cpu.commit.committedInstType_0::InstPrefetch            0      0.00%    100.00% # Class of committed instruction
system.cpu.commit.committedInstType_0::total        15527                       # Class of committed instruction
system.cpu.commit.commitEligibleSamples           491                       # number cycles where commit BW limit reached
system.cpu.dcache.demand_hits::.cpu.data         3475                       # number of demand (read+write) hits
system.cpu.dcache.demand_hits::total             3475                       # number of demand (read+write) hits
system.cpu.dcache.overall_hits::.cpu.data         3475                       # number of overall hits
system.cpu.dcache.overall_hits::total            3475                       # number of overall hits
system.cpu.dcache.demand_misses::.cpu.data          381                       # number of demand (read+write) misses
system.cpu.dcache.demand_misses::total            381                       # number of demand (read+write) misses
system.cpu.dcache.overall_misses::.cpu.data          381                       # number of overall misses
system.cpu.dcache.overall_misses::total           381                       # number of overall misses
system.cpu.dcache.demand_miss_latency::.cpu.data     30742999                       # number of demand (read+write) miss cycles
system.cpu.dcache.demand_miss_latency::total     30742999                       # number of demand (read+write) miss cycles
system.cpu.dcache.overall_miss_latency::.cpu.data     30742999                       # number of overall miss cycles
system.cpu.dcache.overall_miss_latency::total     30742999                       # number of overall miss cycles
system.cpu.dcache.demand_accesses::.cpu.data         3856                       # number of demand (read+write) accesses
system.cpu.dcache.demand_accesses::total         3856                       # number of demand (read+write) accesses
system.cpu.dcache.overall_accesses::.cpu.data         3856                       # number of overall (read+write) accesses
system.cpu.dcache.overall_accesses::total         3856                       # number of overall (read+write) accesses
system.cpu.dcache.demand_miss_rate::.cpu.data     0.098807                       # miss rate for demand accesses
system.cpu.dcache.demand_miss_rate::total     0.098807                       # miss rate for demand accesses
system.cpu.dcache.overall_miss_rate::.cpu.data     0.098807                       # miss rate for overall accesses
system.cpu.dcache.overall_miss_rate::total     0.098807                       # miss rate for overall accesses
system.cpu.dcache.demand_avg_miss_latency::.cpu.data 80690.286089                       # average overall miss latency
system.cpu.dcache.demand_avg_miss_latency::total 80690.286089                       # average overall miss latency
system.cpu.dcache.overall_avg_miss_latency::.cpu.data 80690.286089                       # average overall miss latency
system.cpu.dcache.overall_avg_miss_latency::total 80690.286089                       # average overall miss latency
system.cpu.dcache.blocked_cycles::no_mshrs         1655                       # number of cycles access was blocked
system.cpu.dcache.blocked_cycles::no_targets            0                       # number of cycles access was blocked
system.cpu.dcache.blocked::no_mshrs                20                       # number of cycles access was blocked
system.cpu.dcache.blocked::no_targets               0                       # number of cycles access was blocked
system.cpu.dcache.avg_blocked_cycles::no_mshrs    82.750000                       # average number of cycles each access was blocked
system.cpu.dcache.avg_blocked_cycles::no_targets          nan                       # average number of cycles each access was blocked
system.cpu.dcache.writebacks::.writebacks            6                       # number of writebacks
system.cpu.dcache.writebacks::total                 6                       # number of writebacks
system.cpu.dcache.demand_mshr_hits::.cpu.data          141                       # number of demand (read+write) MSHR hits
system.cpu.dcache.demand_mshr_hits::total          141                       # number of demand (read+write) MSHR hits
system.cpu.dcache.overall_mshr_hits::.cpu.data          141                       # number of overall MSHR hits
system.cpu.dcache.overall_mshr_hits::total          141                       # number of overall MSHR hits
system.cpu.dcache.demand_mshr_misses::.cpu.data          240                       # number of demand (read+write) MSHR misses
system.cpu.dcache.demand_mshr_misses::total          240                       # number of demand (read+write) MSHR misses
system.cpu.dcache.overall_mshr_misses::.cpu.data          240                       # number of overall MSHR misses
system.cpu.dcache.overall_mshr_misses::total          240                       # number of overall MSHR misses
system.cpu.dcache.demand_mshr_miss_latency::.cpu.data     20879999                       # number of demand (read+write) MSHR miss cycles
system.cpu.dcache.demand_mshr_miss_latency::total     20879999                       # number of demand (read+write) MSHR miss cycles
system.cpu.dcache.overall_mshr_miss_latency::.cpu.data     20879999                       # number of overall MSHR miss cycles
system.cpu.dcache.overall_mshr_miss_latency::total     20879999                       # number of overall MSHR miss cycles
system.cpu.dcache.demand_mshr_miss_rate::.cpu.data     0.062241                       # mshr miss rate for demand accesses
system.cpu.dcache.demand_mshr_miss_rate::total     0.062241                       # mshr miss rate for demand accesses
system.cpu.dcache.overall_mshr_miss_rate::.cpu.data     0.062241                       # mshr miss rate for overall accesses
system.cpu.dcache.overall_mshr_miss_rate::total     0.062241                       # mshr miss rate for overall accesses
system.cpu.dcache.demand_avg_mshr_miss_latency::.cpu.data 86999.995833                       # average overall mshr miss latency
system.cpu.dcache.demand_avg_mshr_miss_latency::total 86999.995833                       # average overall mshr miss latency
system.cpu.dcache.overall_avg_mshr_miss_latency::.cpu.data 86999.995833                       # average overall mshr miss latency
system.cpu.dcache.overall_avg_mshr_miss_latency::total 86999.995833                       # average overall mshr miss latency
system.cpu.dcache.replacements                     32                       # number of replacements
system.cpu.dcache.ReadReq_hits::.cpu.data         1995                       # number of ReadReq hits
system.cpu.dcache.ReadReq_hits::total            1995                       # number of ReadReq hits
system.cpu.dcache.ReadReq_misses::.cpu.data          275                       # number of ReadReq misses
system.cpu.dcache.ReadReq_misses::total           275                       # number of ReadReq misses
system.cpu.dcache.ReadReq_miss_latency::.cpu.data     21860500                       # number of ReadReq miss cycles
system.cpu.dcache.ReadReq_miss_latency::total     21860500                       # number of ReadReq miss cycles
system.cpu.dcache.ReadReq_accesses::.cpu.data         2270                       # number of ReadReq accesses(hits+misses)
system.cpu.dcache.ReadReq_accesses::total         2270                       # number of ReadReq accesses(hits+misses)
system.cpu.dcache.ReadReq_miss_rate::.cpu.data     0.121145                       # miss rate for ReadReq accesses
system.cpu.dcache.ReadReq_miss_rate::total     0.121145                       # miss rate for ReadReq accesses
system.cpu.dcache.ReadReq_avg_miss_latency::.cpu.data 79492.727273                       # average ReadReq miss latency
system.cpu.dcache.ReadReq_avg_miss_latency::total 79492.727273                       # average ReadReq miss latency
system.cpu.dcache.ReadReq_mshr_hits::.cpu.data          140                       # number of ReadReq MSHR hits
system.cpu.dcache.ReadReq_mshr_hits::total          140                       # number of ReadReq MSHR hits
system.cpu.dcache.ReadReq_mshr_misses::.cpu.data          135                       # number of ReadReq MSHR misses
system.cpu.dcache.ReadReq_mshr_misses::total          135                       # number of ReadReq MSHR misses
system.cpu.dcache.ReadReq_mshr_miss_latency::.cpu.data     12198000                       # number of ReadReq MSHR miss cycles
system.cpu.dcache.ReadReq_mshr_miss_latency::total     12198000                       # number of ReadReq MSHR miss cycles
system.cpu.dcache.ReadReq_mshr_miss_rate::.cpu.data     0.059471                       # mshr miss rate for ReadReq accesses
system.cpu.dcache.ReadReq_mshr_miss_rate::total     0.059471                       # mshr miss rate for ReadReq accesses
system.cpu.dcache.ReadReq_avg_mshr_miss_latency::.cpu.data 90355.555556                       # average ReadReq mshr miss latency
system.cpu.dcache.ReadReq_avg_mshr_miss_latency::total 90355.555556                       # average ReadReq mshr miss latency
system.cpu.dcache.WriteReq_hits::.cpu.data         1480                       # number of WriteReq hits
system.cpu.dcache.WriteReq_hits::total           1480                       # number of WriteReq hits
system.cpu.dcache.WriteReq_misses::.cpu.data          106                       # number of WriteReq misses
system.cpu.dcache.WriteReq_misses::total          106                       # number of WriteReq misses
system.cpu.dcache.WriteReq_miss_latency::.cpu.data      8882499                       # number of WriteReq miss cycles
system.cpu.dcache.WriteReq_miss_latency::total      8882499                       # number of WriteReq miss cycles
system.cpu.dcache.WriteReq_accesses::.cpu.data         1586                       # number of WriteReq accesses(hits+misses)
system.cpu.dcache.WriteReq_accesses::total         1586                       # number of WriteReq accesses(hits+misses)
system.cpu.dcache.WriteReq_miss_rate::.cpu.data     0.066835                       # miss rate for WriteReq accesses
system.cpu.dcache.WriteReq_miss_rate::total     0.066835                       # miss rate for WriteReq accesses
system.cpu.dcache.WriteReq_avg_miss_latency::.cpu.data 83797.160377                       # average WriteReq miss latency
system.cpu.dcache.WriteReq_avg_miss_latency::total 83797.160377                       # average WriteReq miss latency
system.cpu.dcache.WriteReq_mshr_hits::.cpu.data            1                       # number of WriteReq MSHR hits
system.cpu.dcache.WriteReq_mshr_hits::total            1                       # number of WriteReq MSHR hits
system.cpu.dcache.WriteReq_mshr_misses::.cpu.data          105                       # number of WriteReq MSHR misses
system.cpu.dcache.WriteReq_mshr_misses::total          105                       # number of WriteReq MSHR misses
system.cpu.dcache.WriteReq_mshr_miss_latency::.cpu.data      8681999                       # number of WriteReq MSHR miss cycles
system.cpu.dcache.WriteReq_mshr_miss_latency::total      8681999                       # number of WriteReq MSHR miss cycles
system.cpu.dcache.WriteReq_mshr_miss_rate::.cpu.data     0.066204                       # mshr miss rate for WriteReq accesses
system.cpu.dcache.WriteReq_mshr_miss_rate::total     0.066204                       # mshr miss rate for WriteReq accesses
system.cpu.dcache.WriteReq_avg_mshr_miss_latency::.cpu.data 82685.704762                       # average WriteReq mshr miss latency
system.cpu.dcache.WriteReq_avg_mshr_miss_latency::total 82685.704762                       # average WriteReq mshr miss latency
system.cpu.dcache.power_state.pwrStateResidencyTicks::UNDEFINED     35816500                       # Cumulative time (in ticks) in various power states
system.cpu.dcache.tags.tagsinuse           119.175117                       # Cycle average of tags in use
system.cpu.dcache.tags.total_refs                3715                       # Total number of references to valid blocks.
system.cpu.dcache.tags.sampled_refs               240                       # Sample count of references to valid blocks.
system.cpu.dcache.tags.avg_refs             15.479167                       # Average number of references to valid blocks.
system.cpu.dcache.tags.warmup_cycle            176500                       # Cycle when the warmup percentage was hit.
system.cpu.dcache.tags.occ_blocks::.cpu.data   119.175117                       # Average occupied blocks per requestor
system.cpu.dcache.tags.occ_percent::.cpu.data     0.116382                       # Average percentage of cache occupancy
system.cpu.dcache.tags.occ_percent::total     0.116382                       # Average percentage of cache occupancy
system.cpu.dcache.tags.occ_task_id_blocks::1024          208                       # Occupied blocks per task id
system.cpu.dcache.tags.age_task_id_blocks_1024::0           48                       # Occupied blocks per task id
system.cpu.dcache.tags.age_task_id_blocks_1024::1          160                       # Occupied blocks per task id
system.cpu.dcache.tags.occ_task_id_percent::1024     0.203125                       # Percentage of cache occupancy per task id
system.cpu.dcache.tags.tag_accesses             61936                       # Number of tag accesses
system.cpu.dcache.tags.data_accesses            61936                       # Number of data accesses
system.cpu.dcache.tags.power_state.pwrStateResidencyTicks::UNDEFINED     35816500                       # Cumulative time (in ticks) in various power states
system.cpu.decode.idleCycles                    17337                       # Number of cycles decode is idle
system.cpu.decode.blockedCycles                 11729                       # Number of cycles decode is blocked
system.cpu.decode.runCycles                      4565                       # Number of cycles decode is running
system.cpu.decode.unblockCycles                   461                       # Number of cycles decode is unblocking
system.cpu.decode.squashCycles                    597                       # Number of cycles decode is squashing
system.cpu.decode.branchResolved                 1189                       # Number of times decode resolved a  branch
system.cpu.decode.branchMispred                   212                       # Number of times decode detected a branch misprediction
system.cpu.decode.decodedInsts                  31243                       # Number of instructions handled by decode
system.cpu.decode.squashedInsts                   854                       # Number of squashed instructions handled by decode
system.cpu.dtb.rdAccesses                        2524                       # TLB accesses on read requests
system.cpu.dtb.wrAccesses                        2145                       # TLB accesses on write requests
system.cpu.dtb.rdMisses                            74                       # TLB misses on read requests
system.cpu.dtb.wrMisses                            18                       # TLB misses on write requests
system.cpu.dtb.walker.power_state.pwrStateResidencyTicks::UNDEFINED     35816500                       # Cumulative time (in ticks) in various power states
system.cpu.dtb_walker_cache.blocked_cycles::no_mshrs            0                       # number of cycles access was blocked
system.cpu.dtb_walker_cache.blocked_cycles::no_targets            0                       # number of cycles access was blocked
system.cpu.dtb_walker_cache.blocked::no_mshrs            0                       # number of cycles access was blocked
system.cpu.dtb_walker_cache.blocked::no_targets            0                       # number of cycles access was blocked
system.cpu.dtb_walker_cache.avg_blocked_cycles::no_mshrs          nan                       # average number of cycles each access was blocked
system.cpu.dtb_walker_cache.avg_blocked_cycles::no_targets          nan                       # average number of cycles each access was blocked
system.cpu.dtb_walker_cache.replacements            0                       # number of replacements
system.cpu.dtb_walker_cache.power_state.pwrStateResidencyTicks::UNDEFINED     35816500                       # Cumulative time (in ticks) in various power states
system.cpu.dtb_walker_cache.tags.tagsinuse            0                       # Cycle average of tags in use
system.cpu.dtb_walker_cache.tags.total_refs            0                       # Total number of references to valid blocks.
system.cpu.dtb_walker_cache.tags.sampled_refs            0                       # Sample count of references to valid blocks.
system.cpu.dtb_walker_cache.tags.avg_refs          nan                       # Average number of references to valid blocks.
system.cpu.dtb_walker_cache.tags.warmup_cycle            0                       # Cycle when the warmup percentage was hit.
system.cpu.dtb_walker_cache.tags.tag_accesses            0                       # Number of tag accesses
system.cpu.dtb_walker_cache.tags.data_accesses            0                       # Number of data accesses
system.cpu.dtb_walker_cache.tags.power_state.pwrStateResidencyTicks::UNDEFINED     35816500                       # Cumulative time (in ticks) in various power states
system.cpu.fetch.icacheStallCycles              17897                       # Number of cycles fetch is stalled on an Icache miss
system.cpu.fetch.insts                          18378                       # Number of instructions fetch has processed
system.cpu.fetch.branches                        3886                       # Number of branches that fetch encountered
system.cpu.fetch.predictedBranches               1355                       # Number of branches that fetch has predicted taken
system.cpu.fetch.cycles                         15015                       # Number of cycles fetch has run and was not squashing or blocked
system.cpu.fetch.squashCycles                    1602                       # Number of cycles fetch has spent squashing
system.cpu.fetch.miscStallCycles                  137                       # Number of cycles fetch has spent waiting on interrupts,or bad addresses, or out of MSHRs
system.cpu.fetch.pendingTrapStallCycles           804                       # Number of stall cycles due to pending traps
system.cpu.fetch.pendingQuiesceStallCycles            2                       # Number of stall cycles due to pending quiesce instructions
system.cpu.fetch.icacheWaitRetryStallCycles           33                       # Number of stall cycles due to full MSHR
system.cpu.fetch.cacheLines                      2766                       # Number of cache lines fetched
system.cpu.fetch.icacheSquashes                   356                       # Number of outstanding Icache misses that were squashed
system.cpu.fetch.nisnDist::samples              34689                       # Number of instructions fetched each cycle (Total)
system.cpu.fetch.nisnDist::mean              1.010839                       # Number of instructions fetched each cycle (Total)
system.cpu.fetch.nisnDist::stdev             2.496087                       # Number of instructions fetched each cycle (Total)
system.cpu.fetch.nisnDist::underflows               0      0.00%      0.00% # Number of instructions fetched each cycle (Total)
system.cpu.fetch.nisnDist::0                    29083     83.84%     83.84% # Number of instructions fetched each cycle (Total)
system.cpu.fetch.nisnDist::1                      327      0.94%     84.78% # Number of instructions fetched each cycle (Total)
system.cpu.fetch.nisnDist::2                      326      0.94%     85.72% # Number of instructions fetched each cycle (Total)
system.cpu.fetch.nisnDist::3                      469      1.35%     87.07% # Number of instructions fetched each cycle (Total)
system.cpu.fetch.nisnDist::4                      352      1.01%     88.09% # Number of instructions fetched each cycle (Total)
system.cpu.fetch.nisnDist::5                      315      0.91%     89.00% # Number of instructions fetched each cycle (Total)
system.cpu.fetch.nisnDist::6                      260      0.75%     89.75% # Number of instructions fetched each cycle (Total)
system.cpu.fetch.nisnDist::7                      320      0.92%     90.67% # Number of instructions fetched each cycle (Total)
system.cpu.fetch.nisnDist::8                     3237      9.33%    100.00% # Number of instructions fetched each cycle (Total)
system.cpu.fetch.nisnDist::overflows                0      0.00%    100.00% # Number of instructions fetched each cycle (Total)
system.cpu.fetch.nisnDist::min_value                0                       # Number of instructions fetched each cycle (Total)
system.cpu.fetch.nisnDist::max_value                8                       # Number of instructions fetched each cycle (Total)
system.cpu.fetch.nisnDist::total                34689                       # Number of instructions fetched each cycle (Total)
system.cpu.fetch.branchRate                  0.054248                       # Number of branch fetches per cycle
system.cpu.fetch.rate                        0.256554                       # Number of inst fetches per cycle
system.cpu.icache.demand_hits::.cpu.inst         2173                       # number of demand (read+write) hits
system.cpu.icache.demand_hits::total             2173                       # number of demand (read+write) hits
system.cpu.icache.overall_hits::.cpu.inst         2173                       # number of overall hits
system.cpu.icache.overall_hits::total            2173                       # number of overall hits
system.cpu.icache.demand_misses::.cpu.inst          593                       # number of demand (read+write) misses
system.cpu.icache.demand_misses::total            593                       # number of demand (read+write) misses
system.cpu.icache.overall_misses::.cpu.inst          593                       # number of overall misses
system.cpu.icache.overall_misses::total           593                       # number of overall misses
system.cpu.icache.demand_miss_latency::.cpu.inst     46047499                       # number of demand (read+write) miss cycles
system.cpu.icache.demand_miss_latency::total     46047499                       # number of demand (read+write) miss cycles
system.cpu.icache.overall_miss_latency::.cpu.inst     46047499                       # number of overall miss cycles
system.cpu.icache.overall_miss_latency::total     46047499                       # number of overall miss cycles
system.cpu.icache.demand_accesses::.cpu.inst         2766                       # number of demand (read+write) accesses
system.cpu.icache.demand_accesses::total         2766                       # number of demand (read+write) accesses
system.cpu.icache.overall_accesses::.cpu.inst         2766                       # number of overall (read+write) accesses
system.cpu.icache.overall_accesses::total         2766                       # number of overall (read+write) accesses
system.cpu.icache.demand_miss_rate::.cpu.inst     0.214389                       # miss rate for demand accesses
system.cpu.icache.demand_miss_rate::total     0.214389                       # miss rate for demand accesses
system.cpu.icache.overall_miss_rate::.cpu.inst     0.214389                       # miss rate for overall accesses
system.cpu.icache.overall_miss_rate::total     0.214389                       # miss rate for overall accesses
system.cpu.icache.demand_avg_miss_latency::.cpu.inst 77651.768971                       # average overall miss latency
system.cpu.icache.demand_avg_miss_latency::total 77651.768971                       # average overall miss latency
system.cpu.icache.overall_avg_miss_latency::.cpu.inst 77651.768971                       # average overall miss latency
system.cpu.icache.overall_avg_miss_latency::total 77651.768971                       # average overall miss latency
system.cpu.icache.blocked_cycles::no_mshrs          445                       # number of cycles access was blocked
system.cpu.icache.blocked_cycles::no_targets            0                       # number of cycles access was blocked
system.cpu.icache.blocked::no_mshrs                 5                       # number of cycles access was blocked
system.cpu.icache.blocked::no_targets               0                       # number of cycles access was blocked
system.cpu.icache.avg_blocked_cycles::no_mshrs           89                       # average number of cycles each access was blocked
system.cpu.icache.avg_blocked_cycles::no_targets          nan                       # average number of cycles each access was blocked
system.cpu.icache.writebacks::.writebacks           15                       # number of writebacks
system.cpu.icache.writebacks::total                15                       # number of writebacks
system.cpu.icache.demand_mshr_hits::.cpu.inst          128                       # number of demand (read+write) MSHR hits
system.cpu.icache.demand_mshr_hits::total          128                       # number of demand (read+write) MSHR hits
system.cpu.icache.overall_mshr_hits::.cpu.inst          128                       # number of overall MSHR hits
system.cpu.icache.overall_mshr_hits::total          128                       # number of overall MSHR hits
system.cpu.icache.demand_mshr_misses::.cpu.inst          465                       # number of demand (read+write) MSHR misses
system.cpu.icache.demand_mshr_misses::total          465                       # number of demand (read+write) MSHR misses
system.cpu.icache.overall_mshr_misses::.cpu.inst          465                       # number of overall MSHR misses
system.cpu.icache.overall_mshr_misses::total          465                       # number of overall MSHR misses
system.cpu.icache.demand_mshr_miss_latency::.cpu.inst     37584999                       # number of demand (read+write) MSHR miss cycles
system.cpu.icache.demand_mshr_miss_latency::total     37584999                       # number of demand (read+write) MSHR miss cycles
system.cpu.icache.overall_mshr_miss_latency::.cpu.inst     37584999                       # number of overall MSHR miss cycles
system.cpu.icache.overall_mshr_miss_latency::total     37584999                       # number of overall MSHR miss cycles
system.cpu.icache.demand_mshr_miss_rate::.cpu.inst     0.168113                       # mshr miss rate for demand accesses
system.cpu.icache.demand_mshr_miss_rate::total     0.168113                       # mshr miss rate for demand accesses
system.cpu.icache.overall_mshr_miss_rate::.cpu.inst     0.168113                       # mshr miss rate for overall accesses
system.cpu.icache.overall_mshr_miss_rate::total     0.168113                       # mshr miss rate for overall accesses
system.cpu.icache.demand_avg_mshr_miss_latency::.cpu.inst 80827.954839                       # average overall mshr miss latency
system.cpu.icache.demand_avg_mshr_miss_latency::total 80827.954839                       # average overall mshr miss latency
system.cpu.icache.overall_avg_mshr_miss_latency::.cpu.inst 80827.954839                       # average overall mshr miss latency
system.cpu.icache.overall_avg_mshr_miss_latency::total 80827.954839                       # average overall mshr miss latency
system.cpu.icache.replacements                     15                       # number of replacements
system.cpu.icache.ReadReq_hits::.cpu.inst         2173                       # number of ReadReq hits
system.cpu.icache.ReadReq_hits::total            2173                       # number of ReadReq hits
system.cpu.icache.ReadReq_misses::.cpu.inst          593                       # number of ReadReq misses
system.cpu.icache.ReadReq_misses::total           593                       # number of ReadReq misses
system.cpu.icache.ReadReq_miss_latency::.cpu.inst     46047499                       # number of ReadReq miss cycles
system.cpu.icache.ReadReq_miss_latency::total     46047499                       # number of ReadReq miss cycles
system.cpu.icache.ReadReq_accesses::.cpu.inst         2766                       # number of ReadReq accesses(hits+misses)
system.cpu.icache.ReadReq_accesses::total         2766                       # number of ReadReq accesses(hits+misses)
system.cpu.icache.ReadReq_miss_rate::.cpu.inst     0.214389                       # miss rate for ReadReq accesses
system.cpu.icache.ReadReq_miss_rate::total     0.214389                       # miss rate for ReadReq accesses
system.cpu.icache.ReadReq_avg_miss_latency::.cpu.inst 77651.768971                       # average ReadReq miss latency
system.cpu.icache.ReadReq_avg_miss_latency::total 77651.768971                       # average ReadReq miss latency
system.cpu.icache.ReadReq_mshr_hits::.cpu.inst          128                       # number of ReadReq MSHR hits
system.cpu.icache.ReadReq_mshr_hits::total          128                       # number of ReadReq MSHR hits
system.cpu.icache.ReadReq_mshr_misses::.cpu.inst          465                       # number of ReadReq MSHR misses
system.cpu.icache.ReadReq_mshr_misses::total          465                       # number of ReadReq MSHR misses
system.cpu.icache.ReadReq_mshr_miss_latency::.cpu.inst     37584999                       # number of ReadReq MSHR miss cycles
system.cpu.icache.ReadReq_mshr_miss_latency::total     37584999                       # number of ReadReq MSHR miss cycles
system.cpu.icache.ReadReq_mshr_miss_rate::.cpu.inst     0.168113                       # mshr miss rate for ReadReq accesses
system.cpu.icache.ReadReq_mshr_miss_rate::total     0.168113                       # mshr miss rate for ReadReq accesses
system.cpu.icache.ReadReq_avg_mshr_miss_latency::.cpu.inst 80827.954839                       # average ReadReq mshr miss latency
system.cpu.icache.ReadReq_avg_mshr_miss_latency::total 80827.954839                       # average ReadReq mshr miss latency
system.cpu.icache.power_state.pwrStateResidencyTicks::UNDEFINED     35816500                       # Cumulative time (in ticks) in various power states
system.cpu.icache.tags.tagsinuse           222.773281                       # Cycle average of tags in use
system.cpu.icache.tags.total_refs                2637                       # Total number of references to valid blocks.
system.cpu.icache.tags.sampled_refs               464                       # Sample count of references to valid blocks.
system.cpu.icache.tags.avg_refs              5.683190                       # Average number of references to valid blocks.
system.cpu.icache.tags.warmup_cycle             87500                       # Cycle when the warmup percentage was hit.
system.cpu.icache.tags.occ_blocks::.cpu.inst   222.773281                       # Average occupied blocks per requestor
system.cpu.icache.tags.occ_percent::.cpu.inst     0.217552                       # Average percentage of cache occupancy
system.cpu.icache.tags.occ_percent::total     0.217552                       # Average percentage of cache occupancy
system.cpu.icache.tags.occ_task_id_blocks::1024          449                       # Occupied blocks per task id
system.cpu.icache.tags.age_task_id_blocks_1024::0          146                       # Occupied blocks per task id
system.cpu.icache.tags.age_task_id_blocks_1024::1          303                       # Occupied blocks per task id
system.cpu.icache.tags.occ_task_id_percent::1024     0.438477                       # Percentage of cache occupancy per task id
system.cpu.icache.tags.tag_accesses              5996                       # Number of tag accesses
system.cpu.icache.tags.data_accesses             5996                       # Number of data accesses
system.cpu.icache.tags.power_state.pwrStateResidencyTicks::UNDEFINED     35816500                       # Cumulative time (in ticks) in various power states
system.cpu.interrupts.clk_domain.clock           8000                       # Clock period in ticks
system.cpu.itb.rdAccesses                           0                       # TLB accesses on read requests
system.cpu.itb.wrAccesses                        2908                       # TLB accesses on write requests
system.cpu.itb.rdMisses                             0                       # TLB misses on read requests
system.cpu.itb.wrMisses                           184                       # TLB misses on write requests
system.cpu.itb.walker.power_state.pwrStateResidencyTicks::UNDEFINED     35816500                       # Cumulative time (in ticks) in various power states
system.cpu.itb_walker_cache.blocked_cycles::no_mshrs            0                       # number of cycles access was blocked
system.cpu.itb_walker_cache.blocked_cycles::no_targets            0                       # number of cycles access was blocked
system.cpu.itb_walker_cache.blocked::no_mshrs            0                       # number of cycles access was blocked
system.cpu.itb_walker_cache.blocked::no_targets            0                       # number of cycles access was blocked
system.cpu.itb_walker_cache.avg_blocked_cycles::no_mshrs          nan                       # average number of cycles each access was blocked
system.cpu.itb_walker_cache.avg_blocked_cycles::no_targets          nan                       # average number of cycles each access was blocked
system.cpu.itb_walker_cache.replacements            0                       # number of replacements
system.cpu.itb_walker_cache.power_state.pwrStateResidencyTicks::UNDEFINED     35816500                       # Cumulative time (in ticks) in various power states
system.cpu.itb_walker_cache.tags.tagsinuse            0                       # Cycle average of tags in use
system.cpu.itb_walker_cache.tags.total_refs            0                       # Total number of references to valid blocks.
system.cpu.itb_walker_cache.tags.sampled_refs            0                       # Sample count of references to valid blocks.
system.cpu.itb_walker_cache.tags.avg_refs          nan                       # Average number of references to valid blocks.
system.cpu.itb_walker_cache.tags.warmup_cycle            0                       # Cycle when the warmup percentage was hit.
system.cpu.itb_walker_cache.tags.tag_accesses            0                       # Number of tag accesses
system.cpu.itb_walker_cache.tags.data_accesses            0                       # Number of data accesses
system.cpu.itb_walker_cache.tags.power_state.pwrStateResidencyTicks::UNDEFINED     35816500                       # Cumulative time (in ticks) in various power states
system.cpu.lsq0.forwLoads                         190                       # Number of loads that had data forwarded from stores
system.cpu.lsq0.squashedLoads                    1509                       # Number of loads squashed
system.cpu.lsq0.ignoredResponses                    2                       # Number of memory responses ignored because the instruction is squashed
system.cpu.lsq0.memOrderViolation                  11                       # Number of memory ordering violations
system.cpu.lsq0.squashedStores                    988                       # Number of stores squashed
system.cpu.lsq0.rescheduledLoads                    0                       # Number of loads that were rescheduled
system.cpu.lsq0.blockedByCache                     16                       # Number of times an access to memory failed due to the cache being blocked
system.cpu.power_state.pwrStateResidencyTicks::ON     35816500                       # Cumulative time (in ticks) in various power states
system.cpu.rename.squashCycles                    597                       # Number of cycles rename is squashing
system.cpu.rename.idleCycles                    17733                       # Number of cycles rename is idle
system.cpu.rename.blockCycles                    4718                       # Number of cycles rename is blocking
system.cpu.rename.serializeStallCycles             34                       # count of cycles rename stalledfor serializing inst
system.cpu.rename.runCycles                      4586                       # Number of cycles rename is running
system.cpu.rename.unblockCycles                  7021                       # Number of cycles rename is unblocking
system.cpu.rename.renamedInsts                  30110                       # Number of instructions processed by rename
system.cpu.rename.ROBFullEvents                    20                       # Number of times rename has blocked due to ROB full
system.cpu.rename.IQFullEvents                     94                       # Number of times rename has blocked due to IQ full
system.cpu.rename.LQFullEvents                      1                       # Number of times rename has blocked due to LQ full
system.cpu.rename.SQFullEvents                   6830                       # Number of times rename has blocked due to SQ full
system.cpu.rename.renamedOperands               32425                       # Number of destination operands rename has renamed
system.cpu.rename.lookups                       72740                       # Number of register rename lookups that rename has made
system.cpu.rename.intLookups                    42700                       # Number of integer rename lookups
system.cpu.rename.fpLookups                      1549                       # Number of floating rename lookups
system.cpu.rename.committedMaps                 17231                       # Number of HB maps that are committed
system.cpu.rename.undoneMaps                    15188                       # Number of HB maps that are undone due to squashing
system.cpu.rename.serializing                       3                       # count of serializing insts renamed
system.cpu.rename.tempSerializing                   3                       # count of temporary serializing insts renamed
system.cpu.rename.skidInsts                      1702                       # count of insts added to the skid buffer
system.cpu.rob.reads                            59624                       # The number of ROB reads
system.cpu.rob.writes                           57033                       # The number of ROB writes
system.cpu.thread_0.numInsts                     7992                       # Number of Instructions committed
system.cpu.thread_0.numOps                      15527                       # Number of Ops committed
system.cpu.thread_0.numMemRefs                      0                       # Number of Memory References
system.cpu_clk_domain.clock                       500                       # Clock period in ticks
system.cpu_voltage_domain.voltage                   1                       # Voltage in Volts
system.l2.demand_hits::.cpu.inst                    3                       # number of demand (read+write) hits
system.l2.demand_hits::.cpu.data                   11                       # number of demand (read+write) hits
system.l2.demand_hits::total                       14                       # number of demand (read+write) hits
system.l2.overall_hits::.cpu.inst                   3                       # number of overall hits
system.l2.overall_hits::.cpu.data                  11                       # number of overall hits
system.l2.overall_hits::total                      14                       # number of overall hits
system.l2.demand_misses::.cpu.inst                462                       # number of demand (read+write) misses
system.l2.demand_misses::.cpu.data                229                       # number of demand (read+write) misses
system.l2.demand_misses::total                    691                       # number of demand (read+write) misses
system.l2.overall_misses::.cpu.inst               462                       # number of overall misses
system.l2.overall_misses::.cpu.data               229                       # number of overall misses
system.l2.overall_misses::total                   691                       # number of overall misses
system.l2.demand_miss_latency::.cpu.inst     36853500                       # number of demand (read+write) miss cycles
system.l2.demand_miss_latency::.cpu.data     20395000                       # number of demand (read+write) miss cycles
system.l2.demand_miss_latency::total         57248500                       # number of demand (read+write) miss cycles
system.l2.overall_miss_latency::.cpu.inst     36853500                       # number of overall miss cycles
system.l2.overall_miss_latency::.cpu.data     20395000                       # number of overall miss cycles
system.l2.overall_miss_latency::total        57248500                       # number of overall miss cycles
system.l2.demand_accesses::.cpu.inst              465                       # number of demand (read+write) accesses
system.l2.demand_accesses::.cpu.data              240                       # number of demand (read+write) accesses
system.l2.demand_accesses::total                  705                       # number of demand (read+write) accesses
system.l2.overall_accesses::.cpu.inst             465                       # number of overall (read+write) accesses
system.l2.overall_accesses::.cpu.data             240                       # number of overall (read+write) accesses
system.l2.overall_accesses::total                 705                       # number of overall (read+write) accesses
system.l2.demand_miss_rate::.cpu.inst        0.993548                       # miss rate for demand accesses
system.l2.demand_miss_rate::.cpu.data        0.954167                       # miss rate for demand accesses
system.l2.demand_miss_rate::total            0.980142                       # miss rate for demand accesses
system.l2.overall_miss_rate::.cpu.inst       0.993548                       # miss rate for overall accesses
system.l2.overall_miss_rate::.cpu.data       0.954167                       # miss rate for overall accesses
system.l2.overall_miss_rate::total           0.980142                       # miss rate for overall accesses
system.l2.demand_avg_miss_latency::.cpu.inst 79769.480519                       # average overall miss latency
system.l2.demand_avg_miss_latency::.cpu.data 89061.135371                       # average overall miss latency
system.l2.demand_avg_miss_latency::total 82848.769899                       # average overall miss latency
system.l2.overall_avg_miss_latency::.cpu.inst 79769.480519                       # average overall miss latency
system.l2.overall_avg_miss_latency::.cpu.data 89061.135371                       # average overall miss latency
system.l2.overall_avg_miss_latency::total 82848.769899                       # average overall miss latency
system.l2.blocked_cycles::no_mshrs                  0                       # number of cycles access was blocked
system.l2.blocked_cycles::no_targets                0                       # number of cycles access was blocked
system.l2.blocked::no_mshrs                         0                       # number of cycles access was blocked
system.l2.blocked::no_targets                       0                       # number of cycles access was blocked
[...]
system.mem_ctrls.dram.bw_total::.cpu.inst    823754415                       # Total bandwidth to/from this memory (bytes/s)
system.mem_ctrls.dram.bw_total::.cpu.data    409196879                       # Total bandwidth to/from this memory (bytes/s)
system.mem_ctrls.dram.bw_total::total      1232951293                       # Total bandwidth to/from this memory (bytes/s)
system.mem_ctrls.dram.readBursts                  690                       # Number of DRAM read bursts
system.mem_ctrls.dram.writeBursts                   0                       # Number of DRAM write bursts
system.mem_ctrls.dram.perBankRdBursts::0           90                       # Per bank write bursts
system.mem_ctrls.dram.perBankRdBursts::1           89                       # Per bank write bursts
system.mem_ctrls.dram.perBankRdBursts::2           15                       # Per bank write bursts
system.mem_ctrls.dram.perBankRdBursts::3           47                       # Per bank write bursts
system.mem_ctrls.dram.perBankRdBursts::4            8                       # Per bank write bursts
system.mem_ctrls.dram.perBankRdBursts::5           10                       # Per bank write bursts
system.mem_ctrls.dram.perBankRdBursts::6           72                       # Per bank write bursts
system.mem_ctrls.dram.perBankRdBursts::7           35                       # Per bank write bursts
system.mem_ctrls.dram.perBankRdBursts::8           25                       # Per bank write bursts
system.mem_ctrls.dram.perBankRdBursts::9            9                       # Per bank write bursts
system.mem_ctrls.dram.perBankRdBursts::10           16                       # Per bank write bursts
system.mem_ctrls.dram.perBankRdBursts::11           32                       # Per bank write bursts
system.mem_ctrls.dram.perBankRdBursts::12           58                       # Per bank write bursts
system.mem_ctrls.dram.perBankRdBursts::13           11                       # Per bank write bursts
system.mem_ctrls.dram.perBankRdBursts::14           63                       # Per bank write bursts
system.mem_ctrls.dram.perBankRdBursts::15          110                       # Per bank write bursts
system.mem_ctrls.dram.perBankWrBursts::0            0                       # Per bank write bursts
system.mem_ctrls.dram.perBankWrBursts::1            0                       # Per bank write bursts
system.mem_ctrls.dram.perBankWrBursts::2            0                       # Per bank write bursts
system.mem_ctrls.dram.perBankWrBursts::3            0                       # Per bank write bursts
system.mem_ctrls.dram.perBankWrBursts::4            0                       # Per bank write bursts
system.mem_ctrls.dram.perBankWrBursts::5            0                       # Per bank write bursts
system.mem_ctrls.dram.perBankWrBursts::6            0                       # Per bank write bursts
system.mem_ctrls.dram.perBankWrBursts::7            0                       # Per bank write bursts
system.mem_ctrls.dram.perBankWrBursts::8            0                       # Per bank write bursts
system.mem_ctrls.dram.perBankWrBursts::9            0                       # Per bank write bursts
system.mem_ctrls.dram.perBankWrBursts::10            0                       # Per bank write bursts
system.mem_ctrls.dram.perBankWrBursts::11            0                       # Per bank write bursts
system.mem_ctrls.dram.perBankWrBursts::12            0                       # Per bank write bursts
system.mem_ctrls.dram.perBankWrBursts::13            0                       # Per bank write bursts
system.mem_ctrls.dram.perBankWrBursts::14            0                       # Per bank write bursts
system.mem_ctrls.dram.perBankWrBursts::15            0                       # Per bank write bursts
system.mem_ctrls.dram.totQLat                 9010500                       # Total ticks spent queuing
system.mem_ctrls.dram.totBusLat               3450000                       # Total ticks spent in databus transfers
system.mem_ctrls.dram.totMemAccLat           21948000                       # Total ticks spent from burst creation until serviced by the DRAM
system.mem_ctrls.dram.avgQLat                13058.70                       # Average queueing delay per DRAM burst
system.mem_ctrls.dram.avgBusLat               5000.00                       # Average bus latency per DRAM burst
system.mem_ctrls.dram.avgMemAccLat           31808.70                       # Average memory access latency per DRAM burst
system.mem_ctrls.dram.readRowHits                 505                       # Number of row buffer hits during reads
system.mem_ctrls.dram.writeRowHits                  0                       # Number of row buffer hits during writes
system.mem_ctrls.dram.readRowHitRate            73.19                       # Row buffer hit rate for reads
system.mem_ctrls.dram.writeRowHitRate             nan                       # Row buffer hit rate for writes
system.mem_ctrls.dram.bytesPerActivate::samples          172                       # Bytes accessed per row activation
system.mem_ctrls.dram.bytesPerActivate::mean   240.372093                       # Bytes accessed per row activation
system.mem_ctrls.dram.bytesPerActivate::gmean   152.717019                       # Bytes accessed per row activation
system.mem_ctrls.dram.bytesPerActivate::stdev   266.711314                       # Bytes accessed per row activation
system.mem_ctrls.dram.bytesPerActivate::0-127           68     39.53%     39.53% # Bytes accessed per row activation
system.mem_ctrls.dram.bytesPerActivate::128-255           52     30.23%     69.77% # Bytes accessed per row activation
system.mem_ctrls.dram.bytesPerActivate::256-383           17      9.88%     79.65% # Bytes accessed per row activation
system.mem_ctrls.dram.bytesPerActivate::384-511            9      5.23%     84.88% # Bytes accessed per row activation
system.mem_ctrls.dram.bytesPerActivate::512-639            7      4.07%     88.95% # Bytes accessed per row activation
system.mem_ctrls.dram.bytesPerActivate::640-767            2      1.16%     90.12% # Bytes accessed per row activation
system.mem_ctrls.dram.bytesPerActivate::768-895            7      4.07%     94.19% # Bytes accessed per row activation
system.mem_ctrls.dram.bytesPerActivate::1024-1151           10      5.81%    100.00% # Bytes accessed per row activation
system.mem_ctrls.dram.bytesPerActivate::total          172                       # Bytes accessed per row activation
system.mem_ctrls.dram.bytesRead                 44160                       # Total number of bytes read from DRAM
system.mem_ctrls.dram.bytesWritten                  0                       # Total number of bytes written to DRAM
system.mem_ctrls.dram.avgRdBW             1232.951293                       # Average DRAM read bandwidth in MiBytes/s
system.mem_ctrls.dram.avgWrBW                       0                       # Average DRAM write bandwidth in MiBytes/s
system.mem_ctrls.dram.peakBW                 12800.00                       # Theoretical peak bandwidth in MiByte/s
system.mem_ctrls.dram.busUtil                    9.63                       # Data bus utilization in percentage
system.mem_ctrls.dram.busUtilRead                9.63                       # Data bus utilization in percentage for reads
system.mem_ctrls.dram.busUtilWrite               0.00                       # Data bus utilization in percentage for writes
system.mem_ctrls.dram.pageHitRate               73.19                       # Row buffer hit rate, read and write combined
system.mem_ctrls.dram.power_state.pwrStateResidencyTicks::UNDEFINED     35816500                       # Cumulative time (in ticks) in various power states
system.mem_ctrls.dram.rank0.actEnergy          763980                       # Energy for activate commands per rank (pJ)
system.mem_ctrls.dram.rank0.preEnergy          379500                       # Energy for precharge commands per rank (pJ)
system.mem_ctrls.dram.rank0.readEnergy        2613240                       # Energy for read commands per rank (pJ)
system.mem_ctrls.dram.rank0.writeEnergy             0                       # Energy for write commands per rank (pJ)
system.mem_ctrls.dram.rank0.refreshEnergy 2458560.000000                       # Energy for refresh commands per rank (pJ)
system.mem_ctrls.dram.rank0.actBackEnergy     16074000                       # Energy for active background per rank (pJ)
system.mem_ctrls.dram.rank0.preBackEnergy       217920                       # Energy for precharge background per rank (pJ)
system.mem_ctrls.dram.rank0.actPowerDownEnergy            0                       # Energy for active power-down per rank (pJ)
system.mem_ctrls.dram.rank0.prePowerDownEnergy            0                       # Energy for precharge power-down per rank (pJ)
system.mem_ctrls.dram.rank0.selfRefreshEnergy            0                       # Energy for self refresh per rank (pJ)
system.mem_ctrls.dram.rank0.totalEnergy      22507200                       # Total energy per rank (pJ)
system.mem_ctrls.dram.rank0.averagePower   628.403110                       # Core power per rank (mW)
system.mem_ctrls.dram.rank0.totalIdleTime            0                       # Total Idle time Per DRAM Rank
system.mem_ctrls.dram.rank0.pwrStateTime::IDLE       456000                       # Time in different power states
system.mem_ctrls.dram.rank0.pwrStateTime::REF      1040000                       # Time in different power states
system.mem_ctrls.dram.rank0.pwrStateTime::SREF            0                       # Time in different power states
system.mem_ctrls.dram.rank0.pwrStateTime::PRE_PDN            0                       # Time in different power states
system.mem_ctrls.dram.rank0.pwrStateTime::ACT     34320500                       # Time in different power states
system.mem_ctrls.dram.rank0.pwrStateTime::ACT_PDN            0                       # Time in different power states
system.mem_ctrls.dram.rank1.actEnergy          556920                       # Energy for activate commands per rank (pJ)
system.mem_ctrls.dram.rank1.preEnergy          273240                       # Energy for precharge commands per rank (pJ)
system.mem_ctrls.dram.rank1.readEnergy        2313360                       # Energy for read commands per rank (pJ)
system.mem_ctrls.dram.rank1.writeEnergy             0                       # Energy for write commands per rank (pJ)
system.mem_ctrls.dram.rank1.refreshEnergy 2458560.000000                       # Energy for refresh commands per rank (pJ)
system.mem_ctrls.dram.rank1.actBackEnergy     15742260                       # Energy for active background per rank (pJ)
system.mem_ctrls.dram.rank1.preBackEnergy       497280                       # Energy for precharge background per rank (pJ)
system.mem_ctrls.dram.rank1.actPowerDownEnergy            0                       # Energy for active power-down per rank (pJ)
system.mem_ctrls.dram.rank1.prePowerDownEnergy            0                       # Energy for precharge power-down per rank (pJ)
system.mem_ctrls.dram.rank1.selfRefreshEnergy            0                       # Energy for self refresh per rank (pJ)
system.mem_ctrls.dram.rank1.totalEnergy      21841620                       # Total energy per rank (pJ)
system.mem_ctrls.dram.rank1.averagePower   609.820055                       # Core power per rank (mW)
system.mem_ctrls.dram.rank1.totalIdleTime            0                       # Total Idle time Per DRAM Rank
system.mem_ctrls.dram.rank1.pwrStateTime::IDLE      1156750                       # Time in different power states
system.mem_ctrls.dram.rank1.pwrStateTime::REF      1040000                       # Time in different power states
system.mem_ctrls.dram.rank1.pwrStateTime::SREF            0                       # Time in different power states
system.mem_ctrls.dram.rank1.pwrStateTime::PRE_PDN            0                       # Time in different power states
system.mem_ctrls.dram.rank1.pwrStateTime::ACT     33619750                       # Time in different power states
system.mem_ctrls.dram.rank1.pwrStateTime::ACT_PDN            0                       # Time in different power states
system.mem_ctrls.power_state.pwrStateResidencyTicks::UNDEFINED     35816500                       # Cumulative time (in ticks) in various power states
system.membus.trans_dist::ReadResp                586                       # Transaction distribution
system.membus.trans_dist::CleanEvict                2                       # Transaction distribution
system.membus.trans_dist::ReadExReq               104                       # Transaction distribution
system.membus.trans_dist::ReadExResp              104                       # Transaction distribution
system.membus.trans_dist::ReadSharedReq           586                       # Transaction distribution
system.membus.pkt_count_system.l2.mem_side_port::system.mem_ctrls.port         1382                       # Packet count per connected requestor and responder (bytes)
system.membus.pkt_count_system.l2.mem_side_port::total         1382                       # Packet count per connected requestor and responder (bytes)
system.membus.pkt_count::total                   1382                       # Packet count per connected requestor and responder (bytes)
system.membus.pkt_size_system.l2.mem_side_port::system.mem_ctrls.port        44160                       # Cumulative packet size per connected requestor and responder (bytes)
system.membus.pkt_size_system.l2.mem_side_port::total        44160                       # Cumulative packet size per connected requestor and responder (bytes)
system.membus.pkt_size::total                   44160                       # Cumulative packet size per connected requestor and responder (bytes)
system.membus.snoops                                0                       # Total snoops (count)
system.membus.snoopTraffic                          0                       # Total snoop traffic (bytes)
system.membus.snoop_fanout::samples               690                       # Request fanout histogram
system.membus.snoop_fanout::mean                    0                       # Request fanout histogram
system.membus.snoop_fanout::stdev                   0                       # Request fanout histogram
system.membus.snoop_fanout::underflows              0      0.00%      0.00% # Request fanout histogram
system.membus.snoop_fanout::0                     690    100.00%    100.00% # Request fanout histogram
system.membus.snoop_fanout::1                       0      0.00%    100.00% # Request fanout histogram
system.membus.snoop_fanout::overflows               0      0.00%    100.00% # Request fanout histogram
system.membus.snoop_fanout::min_value               0                       # Request fanout histogram
system.membus.snoop_fanout::max_value               0                       # Request fanout histogram
system.membus.snoop_fanout::total                 690                       # Request fanout histogram
system.membus.power_state.pwrStateResidencyTicks::UNDEFINED     35816500                       # Cumulative time (in ticks) in various power states
system.membus.reqLayer2.occupancy              841000                       # Layer occupancy (ticks)
system.membus.reqLayer2.utilization               2.3                       # Layer utilization (%)
system.membus.respLayer1.occupancy            3675000                       # Layer occupancy (ticks)
system.membus.respLayer1.utilization             10.3                       # Layer utilization (%)
system.tol2bus.trans_dist::ReadResp               599                       # Transaction distribution
system.tol2bus.trans_dist::WritebackDirty            6                       # Transaction distribution
system.tol2bus.trans_dist::WritebackClean           15                       # Transaction distribution
system.tol2bus.trans_dist::CleanEvict              81                       # Transaction distribution
system.tol2bus.trans_dist::ReadExReq              105                       # Transaction distribution
system.tol2bus.trans_dist::ReadExResp             105                       # Transaction distribution
system.tol2bus.trans_dist::ReadCleanReq           465                       # Transaction distribution
system.tol2bus.trans_dist::ReadSharedReq          135                       # Transaction distribution
system.tol2bus.pkt_count_system.cpu.icache.mem_side_port::system.l2.cpu_side_port          944                       # Packet count per connected requestor and responder (bytes)
system.tol2bus.pkt_count_system.cpu.dcache.mem_side_port::system.l2.cpu_side_port          512                       # Packet count per connected requestor and responder (bytes)
system.tol2bus.pkt_count::total                  1456                       # Packet count per connected requestor and responder (bytes)
system.tol2bus.pkt_size_system.cpu.icache.mem_side_port::system.l2.cpu_side_port        30656                       # Cumulative packet size per connected requestor and responder (bytes)
system.tol2bus.pkt_size_system.cpu.dcache.mem_side_port::system.l2.cpu_side_port        15744                       # Cumulative packet size per connected requestor and responder (bytes)
system.tol2bus.pkt_size::total                  46400                       # Cumulative packet size per connected requestor and responder (bytes)
system.tol2bus.snoops                              55                       # Total snoops (count)
system.tol2bus.snoopTraffic                         0                       # Total snoop traffic (bytes)
system.tol2bus.snoop_fanout::samples              760                       # Request fanout histogram
system.tol2bus.snoop_fanout::mean            0.072368                       # Request fanout histogram
system.tol2bus.snoop_fanout::stdev           0.259268                       # Request fanout histogram
system.tol2bus.snoop_fanout::underflows             0      0.00%      0.00% # Request fanout histogram
system.tol2bus.snoop_fanout::0                    705     92.76%     92.76% # Request fanout histogram
system.tol2bus.snoop_fanout::1                     55      7.24%    100.00% # Request fanout histogram
system.tol2bus.snoop_fanout::2                      0      0.00%    100.00% # Request fanout histogram
system.tol2bus.snoop_fanout::3                      0      0.00%    100.00% # Request fanout histogram
system.tol2bus.snoop_fanout::4                      0      0.00%    100.00% # Request fanout histogram
system.tol2bus.snoop_fanout::overflows              0      0.00%    100.00% # Request fanout histogram
system.tol2bus.snoop_fanout::min_value              0                       # Request fanout histogram
system.tol2bus.snoop_fanout::max_value              1                       # Request fanout histogram
system.tol2bus.snoop_fanout::total                760                       # Request fanout histogram
system.tol2bus.power_state.pwrStateResidencyTicks::UNDEFINED     35816500                       # Cumulative time (in ticks) in various power states
system.tol2bus.reqLayer0.occupancy             397000                       # Layer occupancy (ticks)
system.tol2bus.reqLayer0.utilization              1.1                       # Layer utilization (%)
system.tol2bus.respLayer0.occupancy            696000                       # Layer occupancy (ticks)
system.tol2bus.respLayer0.utilization             1.9                       # Layer utilization (%)
system.tol2bus.respLayer1.occupancy            360000                       # Layer occupancy (ticks)
system.tol2bus.respLayer1.utilization             1.0                       # Layer utilization (%)
system.voltage_domain.voltage                       1                       # Voltage in Volts

---------- End Simulation Statistics   ----------
