
---------- Begin Simulation Statistics ----------
final_tick                                 2208668856                       # Number of ticks from beginning of simulation (restored from checkpoints and never reset)
host_inst_rate                                 254782                       # Simulator instruction rate (inst/s)
host_mem_usage                                 653556                       # Number of bytes of host memory used
host_op_rate                                   454930                       # Simulator op (including micro ops) rate (op/s)
host_seconds                                    31.81                       # Real time elapsed on the host
host_tick_rate                               69436509                       # Simulator tick rate (ticks/s)
sim_freq                                 1000000000000                       # Frequency of simulated ticks
sim_insts                                     8104173                       # Number of instructions simulated
sim_ops                                      14470629                       # Number of ops (including micro ops) simulated
sim_seconds                                  0.002209                       # Number of seconds simulated
sim_ticks                                  2208668856                       # Number of ticks simulated
system.cpu.cc_regfile_reads                   1486332                       # number of cc regfile reads
system.cpu.cc_regfile_writes                  1779139                       # number of cc regfile writes
system.cpu.committedInsts                     8104173                       # Number of Instructions Simulated
system.cpu.committedOps                      14470629                       # Number of Ops (including micro ops) Simulated
system.cpu.cpi                               0.490171                       # CPI: Cycles Per Instruction
system.cpu.cpi_total                         0.490171                       # CPI: Total CPI of All Threads
system.cpu.fp_regfile_reads                  13370863                       # number of floating regfile reads
system.cpu.fp_regfile_writes                 11863813                       # number of floating regfile writes
system.cpu.idleCycles                           34775                       # Total number of cycles that the CPU has spent unscheduled due to idling
system.cpu.iew.branchMispredicts                  972                       # Number of branch mispredicts detected at execute
system.cpu.iew.exec_branches                   297487                       # Number of branches executed
system.cpu.iew.exec_nop                             0                       # number of nop insts executed
system.cpu.iew.exec_rate                     3.648564                       # Inst execution rate
system.cpu.iew.exec_refs                      2769997                       # number of memory reference insts executed
system.cpu.iew.exec_stores                     133173                       # Number of stores executed
system.cpu.iew.exec_swp                             0                       # number of swp insts executed
system.cpu.iew.iewBlockCycles                    6821                       # Number of cycles IEW is blocking
system.cpu.iew.iewDispLoadInsts               2625546                       # Number of dispatched load instructions
system.cpu.iew.iewDispNonSpecInsts                  2                       # Number of dispatched non-speculative instructions
system.cpu.iew.iewDispSquashedInsts                88                       # Number of squashed instructions skipped by dispatch
system.cpu.iew.iewDispStoreInsts               133603                       # Number of dispatched store instructions
system.cpu.iew.iewDispatchedInsts            14487673                       # Number of instructions dispatched to IQ
system.cpu.iew.iewExecLoadInsts               2636824                       # Number of load instructions executed
system.cpu.iew.iewExecSquashedInsts              2590                       # Number of squashed instructions skipped in execute
system.cpu.iew.iewExecutedInsts              14493655                       # Number of executed instructions
system.cpu.iew.iewIQFullEvents                   1036                       # Number of times the IQ has become full, causing a stall
system.cpu.iew.iewIdleCycles                        0                       # Number of cycles IEW is idle
system.cpu.iew.iewLSQFullEvents                 14873                       # Number of times the LSQ has become full, causing a stall
system.cpu.iew.iewSquashCycles                    891                       # Number of cycles IEW is squashing
system.cpu.iew.iewUnblockCycles                 15980                       # Number of cycles IEW is unblocking
system.cpu.iew.memOrderViolationEvents              9                       # Number of memory order violations
system.cpu.iew.predictedNotTakenIncorrect          644                       # Number of branches that were predicted not taken incorrectly
system.cpu.iew.predictedTakenIncorrect            328                       # Number of branches that were predicted taken incorrectly
system.cpu.iew.wb_consumers                   9877481                       # num instructions consuming a value
system.cpu.iew.wb_count                      14480165                       # cumulative count of insts written-back
system.cpu.iew.wb_fanout                     0.682179                       # average fanout of values written-back
system.cpu.iew.wb_producers                   6738214                       # num instructions producing a value
system.cpu.iew.wb_rate                       3.645168                       # insts written-back per cycle
system.cpu.iew.wb_sent                       14480569                       # cumulative count of insts sent to commit
system.cpu.int_regfile_reads                  8125165                       # number of integer regfile reads
system.cpu.int_regfile_writes                 2152391                       # number of integer regfile writes
system.cpu.ipc                               2.040106                       # IPC: Instructions Per Cycle
system.cpu.ipc_total                         2.040106                       # IPC: Total IPC of All Threads
system.cpu.iq.FU_type_0::No_OpClass               994      0.01%      0.01% # Type of FU issued
system.cpu.iq.FU_type_0::IntAlu               2546657     17.57%     17.57% # Type of FU issued
system.cpu.iq.FU_type_0::IntMult                    5      0.00%     17.57% # Type of FU issued
system.cpu.iq.FU_type_0::IntDiv                    21      0.00%     17.57% # Type of FU issued
system.cpu.iq.FU_type_0::FloatAdd             4720915     32.57%     50.14% # Type of FU issued
system.cpu.iq.FU_type_0::FloatCmp                   0      0.00%     50.14% # Type of FU issued
system.cpu.iq.FU_type_0::FloatCvt                   0      0.00%     50.14% # Type of FU issued
system.cpu.iq.FU_type_0::FloatMult                  0      0.00%     50.14% # Type of FU issued
system.cpu.iq.FU_type_0::FloatMultAcc               0      0.00%     50.14% # Type of FU issued
system.cpu.iq.FU_type_0::FloatDiv                   0      0.00%     50.14% # Type of FU issued
system.cpu.iq.FU_type_0::FloatMisc                  0      0.00%     50.14% # Type of FU issued
system.cpu.iq.FU_type_0::FloatSqrt                  0      0.00%     50.14% # Type of FU issued
system.cpu.iq.FU_type_0::SimdAdd                    0      0.00%     50.14% # Type of FU issued
system.cpu.iq.FU_type_0::SimdAddAcc                 0      0.00%     50.14% # Type of FU issued
system.cpu.iq.FU_type_0::SimdAlu                  157      0.00%     50.14% # Type of FU issued
system.cpu.iq.FU_type_0::SimdCmp                    0      0.00%     50.14% # Type of FU issued
system.cpu.iq.FU_type_0::SimdCvt                   47      0.00%     50.14% # Type of FU issued
system.cpu.iq.FU_type_0::SimdMisc              262366      1.81%     51.95% # Type of FU issued
system.cpu.iq.FU_type_0::SimdMult                   0      0.00%     51.95% # Type of FU issued
system.cpu.iq.FU_type_0::SimdMultAcc                0      0.00%     51.95% # Type of FU issued
system.cpu.iq.FU_type_0::SimdShift                  0      0.00%     51.95% # Type of FU issued
system.cpu.iq.FU_type_0::SimdShiftAcc               0      0.00%     51.95% # Type of FU issued
system.cpu.iq.FU_type_0::SimdDiv                    0      0.00%     51.95% # Type of FU issued
system.cpu.iq.FU_type_0::SimdSqrt                   0      0.00%     51.95% # Type of FU issued
system.cpu.iq.FU_type_0::SimdFloatAdd         2097152     14.47%     66.42% # Type of FU issued
system.cpu.iq.FU_type_0::SimdFloatAlu               0      0.00%     66.42% # Type of FU issued
system.cpu.iq.FU_type_0::SimdFloatCmp               0      0.00%     66.42% # Type of FU issued
system.cpu.iq.FU_type_0::SimdFloatCvt               1      0.00%     66.42% # Type of FU issued
system.cpu.iq.FU_type_0::SimdFloatDiv               0      0.00%     66.42% # Type of FU issued
system.cpu.iq.FU_type_0::SimdFloatMisc              0      0.00%     66.42% # Type of FU issued
system.cpu.iq.FU_type_0::SimdFloatMult        2097152     14.47%     80.89% # Type of FU issued
system.cpu.iq.FU_type_0::SimdFloatMultAcc            0      0.00%     80.89% # Type of FU issued
system.cpu.iq.FU_type_0::SimdFloatSqrt              0      0.00%     80.89% # Type of FU issued
system.cpu.iq.FU_type_0::SimdReduceAdd              0      0.00%     80.89% # Type of FU issued
system.cpu.iq.FU_type_0::SimdReduceAlu              0      0.00%     80.89% # Type of FU issued
system.cpu.iq.FU_type_0::SimdReduceCmp              0      0.00%     80.89% # Type of FU issued
system.cpu.iq.FU_type_0::SimdFloatReduceAdd            0      0.00%     80.89% # Type of FU issued
system.cpu.iq.FU_type_0::SimdFloatReduceCmp            0      0.00%     80.89% # Type of FU issued
system.cpu.iq.FU_type_0::SimdAes                    0      0.00%     80.89% # Type of FU issued
system.cpu.iq.FU_type_0::SimdAesMix                 0      0.00%     80.89% # Type of FU issued
system.cpu.iq.FU_type_0::SimdSha1Hash               0      0.00%     80.89% # Type of FU issued
system.cpu.iq.FU_type_0::SimdSha1Hash2              0      0.00%     80.89% # Type of FU issued
system.cpu.iq.FU_type_0::SimdSha256Hash             0      0.00%     80.89% # Type of FU issued
system.cpu.iq.FU_type_0::SimdSha256Hash2            0      0.00%     80.89% # Type of FU issued
system.cpu.iq.FU_type_0::SimdShaSigma2              0      0.00%     80.89% # Type of FU issued
system.cpu.iq.FU_type_0::SimdShaSigma3              0      0.00%     80.89% # Type of FU issued
system.cpu.iq.FU_type_0::SimdPredAlu                0      0.00%     80.89% # Type of FU issued
system.cpu.iq.FU_type_0::MemRead                 2716      0.02%     80.90% # Type of FU issued
system.cpu.iq.FU_type_0::MemWrite                1650      0.01%     80.92% # Type of FU issued
system.cpu.iq.FU_type_0::FloatMemRead         2634818     18.18%     99.09% # Type of FU issued
system.cpu.iq.FU_type_0::FloatMemWrite         131600      0.91%    100.00% # Type of FU issued
system.cpu.iq.FU_type_0::IprAccess                  0      0.00%    100.00% # Type of FU issued
system.cpu.iq.FU_type_0::InstPrefetch               0      0.00%    100.00% # Type of FU issued
system.cpu.iq.FU_type_0::total               14496251                       # Type of FU issued
system.cpu.iq.fp_alu_accesses                12266976                       # Number of floating point alu accesses
system.cpu.iq.fp_inst_queue_reads            24277412                       # Number of floating instruction queue reads
system.cpu.iq.fp_inst_queue_wakeup_accesses     11995446                       # Number of floating instruction queue wakeup accesses
system.cpu.iq.fp_inst_queue_writes           12002455                       # Number of floating instruction queue writes
system.cpu.iq.fu_busy_cnt                      257341                       # FU busy when requested
system.cpu.iq.fu_busy_rate                   0.017752                       # FU busy rate (busy events/executed inst)
system.cpu.iq.fu_full::No_OpClass                   0      0.00%      0.00% # attempts to use FU when none available
system.cpu.iq.fu_full::IntAlu                     203      0.08%      0.08% # attempts to use FU when none available
system.cpu.iq.fu_full::IntMult                      0      0.00%      0.08% # attempts to use FU when none available
system.cpu.iq.fu_full::IntDiv                       0      0.00%      0.08% # attempts to use FU when none available
system.cpu.iq.fu_full::FloatAdd                 81872     31.81%     31.89% # attempts to use FU when none available
system.cpu.iq.fu_full::FloatCmp                     0      0.00%     31.89% # attempts to use FU when none available
system.cpu.iq.fu_full::FloatCvt                     0      0.00%     31.89% # attempts to use FU when none available
system.cpu.iq.fu_full::FloatMult                    0      0.00%     31.89% # attempts to use FU when none available
system.cpu.iq.fu_full::FloatMultAcc                 0      0.00%     31.89% # attempts to use FU when none available
system.cpu.iq.fu_full::FloatDiv                     0      0.00%     31.89% # attempts to use FU when none available
system.cpu.iq.fu_full::FloatMisc                    0      0.00%     31.89% # attempts to use FU when none available
system.cpu.iq.fu_full::FloatSqrt                    0      0.00%     31.89% # attempts to use FU when none available
system.cpu.iq.fu_full::SimdAdd                      0      0.00%     31.89% # attempts to use FU when none available
system.cpu.iq.fu_full::SimdAddAcc                   0      0.00%     31.89% # attempts to use FU when none available
system.cpu.iq.fu_full::SimdAlu                     10      0.00%     31.90% # attempts to use FU when none available
system.cpu.iq.fu_full::SimdCmp                      0      0.00%     31.90% # attempts to use FU when none available
system.cpu.iq.fu_full::SimdCvt                      1      0.00%     31.90% # attempts to use FU when none available
system.cpu.iq.fu_full::SimdMisc                 34227     13.30%     45.20% # attempts to use FU when none available
system.cpu.iq.fu_full::SimdMult                     0      0.00%     45.20% # attempts to use FU when none available
system.cpu.iq.fu_full::SimdMultAcc                  0      0.00%     45.20% # attempts to use FU when none available
system.cpu.iq.fu_full::SimdShift                    0      0.00%     45.20% # attempts to use FU when none available
system.cpu.iq.fu_full::SimdShiftAcc                 0      0.00%     45.20% # attempts to use FU when none available
system.cpu.iq.fu_full::SimdDiv                      0      0.00%     45.20% # attempts to use FU when none available
system.cpu.iq.fu_full::SimdSqrt                     0      0.00%     45.20% # attempts to use FU when none available
system.cpu.iq.fu_full::SimdFloatAdd             34727     13.49%     58.69% # attempts to use FU when none available
system.cpu.iq.fu_full::SimdFloatAlu                 0      0.00%     58.69% # attempts to use FU when none available
system.cpu.iq.fu_full::SimdFloatCmp                 0      0.00%     58.69% # attempts to use FU when none available
system.cpu.iq.fu_full::SimdFloatCvt                 0      0.00%     58.69% # attempts to use FU when none available
system.cpu.iq.fu_full::SimdFloatDiv                 0      0.00%     58.69% # attempts to use FU when none available
system.cpu.iq.fu_full::SimdFloatMisc                0      0.00%     58.69% # attempts to use FU when none available
system.cpu.iq.fu_full::SimdFloatMult           104003     40.41%     99.11% # attempts to use FU when none available
system.cpu.iq.fu_full::SimdFloatMultAcc             0      0.00%     99.11% # attempts to use FU when none available
system.cpu.iq.fu_full::SimdFloatSqrt                0      0.00%     99.11% # attempts to use FU when none available
system.cpu.iq.fu_full::SimdReduceAdd                0      0.00%     99.11% # attempts to use FU when none available
system.cpu.iq.fu_full::SimdReduceAlu                0      0.00%     99.11% # attempts to use FU when none available
system.cpu.iq.fu_full::SimdReduceCmp                0      0.00%     99.11% # attempts to use FU when none available
system.cpu.iq.fu_full::SimdFloatReduceAdd            0      0.00%     99.11% # attempts to use FU when none available
system.cpu.iq.fu_full::SimdFloatReduceCmp            0      0.00%     99.11% # attempts to use FU when none available
system.cpu.iq.fu_full::SimdAes                      0      0.00%     99.11% # attempts to use FU when none available
system.cpu.iq.fu_full::SimdAesMix                   0      0.00%     99.11% # attempts to use FU when none available
system.cpu.iq.fu_full::SimdSha1Hash                 0      0.00%     99.11% # attempts to use FU when none available
system.cpu.iq.fu_full::SimdSha1Hash2                0      0.00%     99.11% # attempts to use FU when none available
system.cpu.iq.fu_full::SimdSha256Hash               0      0.00%     99.11% # attempts to use FU when none available
system.cpu.iq.fu_full::SimdSha256Hash2              0      0.00%     99.11% # attempts to use FU when none available
system.cpu.iq.fu_full::SimdShaSigma2                0      0.00%     99.11% # attempts to use FU when none available
system.cpu.iq.fu_full::SimdShaSigma3                0      0.00%     99.11% # attempts to use FU when none available
system.cpu.iq.fu_full::SimdPredAlu                  0      0.00%     99.11% # attempts to use FU when none available
system.cpu.iq.fu_full::MemRead                     30      0.01%     99.12% # attempts to use FU when none available
system.cpu.iq.fu_full::MemWrite                    18      0.01%     99.13% # attempts to use FU when none available
system.cpu.iq.fu_full::FloatMemRead              2242      0.87%    100.00% # attempts to use FU when none available
system.cpu.iq.fu_full::FloatMemWrite                8      0.00%    100.00% # attempts to use FU when none available
system.cpu.iq.fu_full::IprAccess                    0      0.00%    100.00% # attempts to use FU when none available
system.cpu.iq.fu_full::InstPrefetch                 0      0.00%    100.00% # attempts to use FU when none available
system.cpu.iq.int_alu_accesses                2485622                       # Number of integer alu accesses
system.cpu.iq.int_inst_queue_reads            8910661                       # Number of integer instruction queue reads
system.cpu.iq.int_inst_queue_wakeup_accesses      2484719                       # Number of integer instruction queue wakeup accesses
system.cpu.iq.int_inst_queue_writes           2502256                       # Number of integer instruction queue writes
system.cpu.iq.iqInstsAdded                   14487671                       # Number of instructions added to the IQ (excludes non-spec)
system.cpu.iq.iqInstsIssued                  14496251                       # Number of instructions issued
system.cpu.iq.iqNonSpecInstsAdded                   2                       # Number of non-speculative instructions added to the IQ
system.cpu.iq.iqSquashedInstsExamined           17030                       # Number of squashed instructions iterated over during squash; mainly for profiling
system.cpu.iq.iqSquashedInstsIssued               584                       # Number of squashed instructions issued
system.cpu.iq.iqSquashedNonSpecRemoved              2                       # Number of squashed non-spec instructions that were removed
system.cpu.iq.iqSquashedOperandsExamined        17957                       # Number of squashed operands that are examined and possibly removed from graph
system.cpu.iq.issued_per_cycle::samples       3937652                       # Number of insts issued each cycle
system.cpu.iq.issued_per_cycle::mean         3.681445                       # Number of insts issued each cycle
system.cpu.iq.issued_per_cycle::stdev        2.728744                       # Number of insts issued each cycle
system.cpu.iq.issued_per_cycle::underflows            0      0.00%      0.00% # Number of insts issued each cycle
system.cpu.iq.issued_per_cycle::0              351416      8.92%      8.92% # Number of insts issued each cycle
system.cpu.iq.issued_per_cycle::1             1103310     28.02%     36.94% # Number of insts issued each cycle
system.cpu.iq.issued_per_cycle::2              329807      8.38%     45.32% # Number of insts issued each cycle
system.cpu.iq.issued_per_cycle::3              205680      5.22%     50.54% # Number of insts issued each cycle
system.cpu.iq.issued_per_cycle::4              272626      6.92%     57.47% # Number of insts issued each cycle
system.cpu.iq.issued_per_cycle::5              215234      5.47%     62.93% # Number of insts issued each cycle
system.cpu.iq.issued_per_cycle::6              581396     14.77%     77.70% # Number of insts issued each cycle
system.cpu.iq.issued_per_cycle::7              564227     14.33%     92.03% # Number of insts issued each cycle
system.cpu.iq.issued_per_cycle::8              313956      7.97%    100.00% # Number of insts issued each cycle
system.cpu.iq.issued_per_cycle::overflows            0      0.00%    100.00% # Number of insts issued each cycle
system.cpu.iq.issued_per_cycle::min_value            0                       # Number of insts issued each cycle
system.cpu.iq.issued_per_cycle::max_value            8                       # Number of insts issued each cycle
system.cpu.iq.issued_per_cycle::total         3937652                       # Number of insts issued each cycle
system.cpu.iq.rate                           3.649218                       # Inst issue rate
system.cpu.iq.vec_alu_accesses                      0                       # Number of vector alu accesses
system.cpu.iq.vec_inst_queue_reads                  0                       # Number of vector instruction queue reads
system.cpu.iq.vec_inst_queue_wakeup_accesses            0                       # Number of vector instruction queue wakeup accesses
system.cpu.iq.vec_inst_queue_writes                 0                       # Number of vector instruction queue writes
system.cpu.memDep0.conflictingLoads                27                       # Number of conflicting loads.
system.cpu.memDep0.conflictingStores               13                       # Number of conflicting stores.
system.cpu.memDep0.insertedLoads              2625546                       # Number of loads inserted to the mem dependence unit.
system.cpu.memDep0.insertedStores              133603                       # Number of stores inserted to the mem dependence unit.
system.cpu.misc_regfile_reads                 3365993                       # number of misc regfile reads
system.cpu.numCycles                          3972427                       # number of cpu cycles simulated
system.cpu.numWorkItemsCompleted                    0                       # number of work items this cpu completed
system.cpu.numWorkItemsStarted                      0                       # number of work items this cpu started
system.cpu.timesIdled                             317                       # Number of times that the entire CPU went into an idle state and unscheduled itself
system.cpu.workload.numSyscalls                    10                       # Number of system calls
system.membus.snoop_filter.hit_multi_requests            0                       # Number of requests hitting in the snoop filter with multiple (>1) holders of the requested data.
system.membus.snoop_filter.hit_multi_snoops            0                       # Number of snoops hitting in the snoop filter with multiple (>1) holders of the requested data.
system.membus.snoop_filter.hit_single_requests            0                       # Number of requests hitting in the snoop filter with a single holder of the requested data.
system.membus.snoop_filter.hit_single_snoops            0                       # Number of snoops hitting in the snoop filter with a single holder of the requested data.
system.membus.snoop_filter.tot_requests          3752                       # Total number of requests made to the snoop filter.
system.membus.snoop_filter.tot_snoops               0                       # Total number of snoops made to the snoop filter.
system.tol2bus.snoop_filter.hit_multi_requests            0                       # Number of requests hitting in the snoop filter with multiple (>1) holders of the requested data.
system.tol2bus.snoop_filter.hit_multi_snoops            0                       # Number of snoops hitting in the snoop filter with multiple (>1) holders of the requested data.
system.tol2bus.snoop_filter.hit_single_requests        28882                       # Number of requests hitting in the snoop filter with a single holder of the requested data.
system.tol2bus.snoop_filter.hit_single_snoops            0                       # Number of snoops hitting in the snoop filter with a single holder of the requested data.
system.tol2bus.snoop_filter.tot_requests        59225                       # Total number of requests made to the snoop filter.
system.tol2bus.snoop_filter.tot_snoops              0                       # Total number of snoops made to the snoop filter.
system.clk_domain.clock                          1000                       # Clock period in ticks
system.cpu.branchPred.lookups                  299111                       # Number of BP lookups
system.cpu.branchPred.condPredicted            297940                       # Number of conditional branches predicted
system.cpu.branchPred.condIncorrect               957                       # Number of conditional branches incorrect
system.cpu.branchPred.BTBLookups               264262                       # Number of BTB lookups
system.cpu.branchPred.BTBHits                  263517                       # Number of BTB hits
system.cpu.branchPred.BTBHitPct             99.718083                       # BTB Hit Percentage
system.cpu.branchPred.RASUsed                     281                       # Number of times the RAS was used to get a target.
system.cpu.branchPred.RASIncorrect                  0                       # Number of incorrect RAS predictions.
system.cpu.branchPred.indirectLookups             296                       # Number of indirect predictor lookups.
system.cpu.branchPred.indirectHits                 18                       # Number of indirect target hits.
system.cpu.branchPred.indirectMisses              278                       # Number of indirect misses.
system.cpu.branchPred.indirectMispredicted           90                       # Number of mispredicted indirect branches.
system.cpu.commit.commitSquashedInsts           16922                       # The number of squashed insts skipped by commit
system.cpu.commit.branchMispredicts               871                       # The number of times a branch was mispredicted
system.cpu.commit.numCommittedDist::samples      3935107                       # Number of insts commited each cycle
system.cpu.commit.numCommittedDist::mean     3.677315                       # Number of insts commited each cycle
system.cpu.commit.numCommittedDist::stdev     3.009239                       # Number of insts commited each cycle
system.cpu.commit.numCommittedDist::underflows            0      0.00%      0.00% # Number of insts commited each cycle
system.cpu.commit.numCommittedDist::0          884828     22.49%     22.49% # Number of insts commited each cycle
system.cpu.commit.numCommittedDist::1          559838     14.23%     36.71% # Number of insts commited each cycle
system.cpu.commit.numCommittedDist::2          299862      7.62%     44.33% # Number of insts commited each cycle
system.cpu.commit.numCommittedDist::3           38851      0.99%     45.32% # Number of insts commited each cycle
system.cpu.commit.numCommittedDist::4          385289      9.79%     55.11% # Number of insts commited each cycle
system.cpu.commit.numCommittedDist::5          749910     19.06%     74.17% # Number of insts commited each cycle
system.cpu.commit.numCommittedDist::6           97345      2.47%     76.64% # Number of insts commited each cycle
system.cpu.commit.numCommittedDist::7           33734      0.86%     77.50% # Number of insts commited each cycle
system.cpu.commit.numCommittedDist::8          885450     22.50%    100.00% # Number of insts commited each cycle
system.cpu.commit.numCommittedDist::overflows            0      0.00%    100.00% # Number of insts commited each cycle
system.cpu.commit.numCommittedDist::min_value            0                       # Number of insts commited each cycle
system.cpu.commit.numCommittedDist::max_value            8                       # Number of insts commited each cycle
system.cpu.commit.numCommittedDist::total      3935107                       # Number of insts commited each cycle
system.cpu.commit.instsCommitted              8104173                       # Number of instructions committed
system.cpu.commit.opsCommitted               14470629                       # Number of ops (including micro ops) committed
system.cpu.commit.memRefs                     2755586                       # Number of memory references committed
system.cpu.commit.loads                       2622923                       # Number of loads committed
system.cpu.commit.amos                              0                       # Number of atomic instructions committed
system.cpu.commit.membars                           0                       # Number of memory barriers committed
system.cpu.commit.branches                     296838                       # Number of branches committed
system.cpu.commit.vector                            0                       # Number of committed Vector instructions.
system.cpu.commit.floating                   11994221                       # Number of committed floating point instructions.
system.cpu.commit.integer                     5196288                       # Number of committed integer instructions.
system.cpu.commit.functionCalls                   144                       # Number of function calls committed.
system.cpu.commit.committedInstType_0::No_OpClass          536      0.00%      0.00% # Class of committed instruction
system.cpu.commit.committedInstType_0::IntAlu      2538951     17.55%     17.55% # Class of committed instruction
system.cpu.commit.committedInstType_0::IntMult            5      0.00%     17.55% # Class of committed instruction
system.cpu.commit.committedInstType_0::IntDiv           21      0.00%     17.55% # Class of committed instruction
system.cpu.commit.committedInstType_0::FloatAdd      4718727     32.61%     50.16% # Class of committed instruction
system.cpu.commit.committedInstType_0::FloatCmp            0      0.00%     50.16% # Class of committed instruction
system.cpu.commit.committedInstType_0::FloatCvt            0      0.00%     50.16% # Class of committed instruction
system.cpu.commit.committedInstType_0::FloatMult            0      0.00%     50.16% # Class of committed instruction
system.cpu.commit.committedInstType_0::FloatMultAcc            0      0.00%     50.16% # Class of committed instruction
system.cpu.commit.committedInstType_0::FloatDiv            0      0.00%     50.16% # Class of committed instruction
system.cpu.commit.committedInstType_0::FloatMisc            0      0.00%     50.16% # Class of committed instruction
system.cpu.commit.committedInstType_0::FloatSqrt            0      0.00%     50.16% # Class of committed instruction
system.cpu.commit.committedInstType_0::SimdAdd            0      0.00%     50.16% # Class of committed instruction
system.cpu.commit.committedInstType_0::SimdAddAcc            0      0.00%     50.16% # Class of committed instruction
system.cpu.commit.committedInstType_0::SimdAlu           94      0.00%     50.16% # Class of committed instruction
system.cpu.commit.committedInstType_0::SimdCmp            0      0.00%     50.16% # Class of committed instruction
system.cpu.commit.committedInstType_0::SimdCvt           46      0.00%     50.16% # Class of committed instruction
system.cpu.commit.committedInstType_0::SimdMisc       262359      1.81%     51.97% # Class of committed instruction
system.cpu.commit.committedInstType_0::SimdMult            0      0.00%     51.97% # Class of committed instruction
system.cpu.commit.committedInstType_0::SimdMultAcc            0      0.00%     51.97% # Class of committed instruction
system.cpu.commit.committedInstType_0::SimdShift            0      0.00%     51.97% # Class of committed instruction
system.cpu.commit.committedInstType_0::SimdShiftAcc            0      0.00%     51.97% # Class of committed instruction
system.cpu.commit.committedInstType_0::SimdDiv            0      0.00%     51.97% # Class of committed instruction
system.cpu.commit.committedInstType_0::SimdSqrt            0      0.00%     51.97% # Class of committed instruction
system.cpu.commit.committedInstType_0::SimdFloatAdd      2097152     14.49%     66.46% # Class of committed instruction
system.cpu.commit.committedInstType_0::SimdFloatAlu            0      0.00%     66.46% # Class of committed instruction
system.cpu.commit.committedInstType_0::SimdFloatCmp            0      0.00%     66.46% # Class of committed instruction
system.cpu.commit.committedInstType_0::SimdFloatCvt            0      0.00%     66.46% # Class of committed instruction
system.cpu.commit.committedInstType_0::SimdFloatDiv            0      0.00%     66.46% # Class of committed instruction
system.cpu.commit.committedInstType_0::SimdFloatMisc            0      0.00%     66.46% # Class of committed instruction
system.cpu.commit.committedInstType_0::SimdFloatMult      2097152     14.49%     80.96% # Class of committed instruction
system.cpu.commit.committedInstType_0::SimdFloatMultAcc            0      0.00%     80.96% # Class of committed instruction
system.cpu.commit.committedInstType_0::SimdFloatSqrt            0      0.00%     80.96% # Class of committed instruction
system.cpu.commit.committedInstType_0::SimdReduceAdd            0      0.00%     80.96% # Class of committed instruction
system.cpu.commit.committedInstType_0::SimdReduceAlu            0      0.00%     80.96% # Class of committed instruction
system.cpu.commit.committedInstType_0::SimdReduceCmp            0      0.00%     80.96% # Class of committed instruction
system.cpu.commit.committedInstType_0::SimdFloatReduceAdd            0      0.00%     80.96% # Class of committed instruction
system.cpu.commit.committedInstType_0::SimdFloatReduceCmp            0      0.00%     80.96% # Class of committed instruction
system.cpu.commit.committedInstType_0::SimdAes            0      0.00%     80.96% # Class of committed instruction
system.cpu.commit.committedInstType_0::SimdAesMix            0      0.00%     80.96% # Class of committed instruction
system.cpu.commit.committedInstType_0::SimdSha1Hash            0      0.00%     80.96% # Class of committed instruction
system.cpu.commit.committedInstType_0::SimdSha1Hash2            0      0.00%     80.96% # Class of committed instruction
system.cpu.commit.committedInstType_0::SimdSha256Hash            0      0.00%     80.96% # Class of committed instruction
system.cpu.commit.committedInstType_0::SimdSha256Hash2            0      0.00%     80.96% # Class of committed instruction
system.cpu.commit.committedInstType_0::SimdShaSigma2            0      0.00%     80.96% # Class of committed instruction
system.cpu.commit.committedInstType_0::SimdShaSigma3            0      0.00%     80.96% # Class of committed instruction
system.cpu.commit.committedInstType_0::SimdPredAlu            0      0.00%     80.96% # Class of committed instruction
system.cpu.commit.committedInstType_0::MemRead         1437      0.01%     80.97% # Class of committed instruction
system.cpu.commit.committedInstType_0::MemWrite         1133      0.01%     80.98% # Class of committed instruction
system.cpu.commit.committedInstType_0::FloatMemRead      2621486     18.12%     99.09% # Class of committed instruction
system.cpu.commit.committedInstType_0::FloatMemWrite       131530      0.91%    100.00% # Class of committed instruction
system.cpu.commit.committedInstType_0::IprAccess            0      0.00%    100.00% # Class of committed instruction
system.cpu.commit.committedInstType_0::InstPrefetch            0      0.00%    100.00% # Class of committed instruction
system.cpu.commit.committedInstType_0::total     14470629                       # Class of committed instruction
system.cpu.commit.commitEligibleSamples        885450                       # number cycles where commit BW limit reached
system.cpu.dcache.demand_hits::.cpu.data      2718290                       # number of demand (read+write) hits
system.cpu.dcache.demand_hits::total          2718290                       # number of demand (read+write) hits
system.cpu.dcache.overall_hits::.cpu.data      2718290                       # number of overall hits
system.cpu.dcache.overall_hits::total         2718290                       # number of overall hits
system.cpu.dcache.demand_misses::.cpu.data       169712                       # number of demand (read+write) misses
system.cpu.dcache.demand_misses::total         169712                       # number of demand (read+write) misses
system.cpu.dcache.overall_misses::.cpu.data       169712                       # number of overall misses
system.cpu.dcache.overall_misses::total        169712                       # number of overall misses
system.cpu.dcache.demand_miss_latency::.cpu.data   3282495563                       # number of demand (read+write) miss cycles
system.cpu.dcache.demand_miss_latency::total   3282495563                       # number of demand (read+write) miss cycles
system.cpu.dcache.overall_miss_latency::.cpu.data   3282495563                       # number of overall miss cycles
system.cpu.dcache.overall_miss_latency::total   3282495563                       # number of overall miss cycles
system.cpu.dcache.demand_accesses::.cpu.data      2888002                       # number of demand (read+write) accesses
system.cpu.dcache.demand_accesses::total      2888002                       # number of demand (read+write) accesses
system.cpu.dcache.overall_accesses::.cpu.data      2888002                       # number of overall (read+write) accesses
system.cpu.dcache.overall_accesses::total      2888002                       # number of overall (read+write) accesses
system.cpu.dcache.demand_miss_rate::.cpu.data     0.058765                       # miss rate for demand accesses
system.cpu.dcache.demand_miss_rate::total     0.058765                       # miss rate for demand accesses
system.cpu.dcache.overall_miss_rate::.cpu.data     0.058765                       # miss rate for overall accesses
system.cpu.dcache.overall_miss_rate::total     0.058765                       # miss rate for overall accesses
system.cpu.dcache.demand_avg_miss_latency::.cpu.data 19341.564315                       # average overall miss latency
system.cpu.dcache.demand_avg_miss_latency::total 19341.564315                       # average overall miss latency
system.cpu.dcache.overall_avg_miss_latency::.cpu.data 19341.564315                       # average overall miss latency
system.cpu.dcache.overall_avg_miss_latency::total 19341.564315                       # average overall miss latency
system.cpu.dcache.blocked_cycles::no_mshrs        34891                       # number of cycles access was blocked
system.cpu.dcache.blocked_cycles::no_targets            0                       # number of cycles access was blocked
system.cpu.dcache.blocked::no_mshrs              1706                       # number of cycles access was blocked
system.cpu.dcache.blocked::no_targets               0                       # number of cycles access was blocked
system.cpu.dcache.avg_blocked_cycles::no_mshrs    20.451934                       # average number of cycles each access was blocked
system.cpu.dcache.avg_blocked_cycles::no_targets          nan                       # average number of cycles each access was blocked
system.cpu.dcache.writebacks::.writebacks        16009                       # number of writebacks
system.cpu.dcache.writebacks::total             16009                       # number of writebacks
system.cpu.dcache.demand_mshr_hits::.cpu.data       139826                       # number of demand (read+write) MSHR hits
system.cpu.dcache.demand_mshr_hits::total       139826                       # number of demand (read+write) MSHR hits
system.cpu.dcache.overall_mshr_hits::.cpu.data       139826                       # number of overall MSHR hits
system.cpu.dcache.overall_mshr_hits::total       139826                       # number of overall MSHR hits
system.cpu.dcache.demand_mshr_misses::.cpu.data        29886                       # number of demand (read+write) MSHR misses
system.cpu.dcache.demand_mshr_misses::total        29886                       # number of demand (read+write) MSHR misses
system.cpu.dcache.overall_mshr_misses::.cpu.data        29886                       # number of overall MSHR misses
system.cpu.dcache.overall_mshr_misses::total        29886                       # number of overall MSHR misses
system.cpu.dcache.demand_mshr_miss_latency::.cpu.data    623198715                       # number of demand (read+write) MSHR miss cycles
system.cpu.dcache.demand_mshr_miss_latency::total    623198715                       # number of demand (read+write) MSHR miss cycles
system.cpu.dcache.overall_mshr_miss_latency::.cpu.data    623198715                       # number of overall MSHR miss cycles
system.cpu.dcache.overall_mshr_miss_latency::total    623198715                       # number of overall MSHR miss cycles
system.cpu.dcache.demand_mshr_miss_rate::.cpu.data     0.010348                       # mshr miss rate for demand accesses
system.cpu.dcache.demand_mshr_miss_rate::total     0.010348                       # mshr miss rate for demand accesses
system.cpu.dcache.overall_mshr_miss_rate::.cpu.data     0.010348                       # mshr miss rate for overall accesses
system.cpu.dcache.overall_mshr_miss_rate::total     0.010348                       # mshr miss rate for overall accesses
system.cpu.dcache.demand_avg_mshr_miss_latency::.cpu.data 20852.530114                       # average overall mshr miss latency
system.cpu.dcache.demand_avg_mshr_miss_latency::total 20852.530114                       # average overall mshr miss latency
system.cpu.dcache.overall_avg_mshr_miss_latency::.cpu.data 20852.530114                       # average overall mshr miss latency
system.cpu.dcache.overall_avg_mshr_miss_latency::total 20852.530114                       # average overall mshr miss latency
system.cpu.dcache.replacements                  28862                       # number of replacements
system.cpu.dcache.ReadReq_hits::.cpu.data      2586067                       # number of ReadReq hits
system.cpu.dcache.ReadReq_hits::total         2586067                       # number of ReadReq hits
system.cpu.dcache.ReadReq_misses::.cpu.data       169271                       # number of ReadReq misses
system.cpu.dcache.ReadReq_misses::total        169271                       # number of ReadReq misses
system.cpu.dcache.ReadReq_miss_latency::.cpu.data   3268470464                       # number of ReadReq miss cycles
system.cpu.dcache.ReadReq_miss_latency::total   3268470464                       # number of ReadReq miss cycles
system.cpu.dcache.ReadReq_accesses::.cpu.data      2755338                       # number of ReadReq accesses(hits+misses)
system.cpu.dcache.ReadReq_accesses::total      2755338                       # number of ReadReq accesses(hits+misses)
system.cpu.dcache.ReadReq_miss_rate::.cpu.data     0.061434                       # miss rate for ReadReq accesses
system.cpu.dcache.ReadReq_miss_rate::total     0.061434                       # miss rate for ReadReq accesses
system.cpu.dcache.ReadReq_avg_miss_latency::.cpu.data 19309.098806                       # average ReadReq miss latency
system.cpu.dcache.ReadReq_avg_miss_latency::total 19309.098806                       # average ReadReq miss latency
system.cpu.dcache.ReadReq_mshr_hits::.cpu.data       139825                       # number of ReadReq MSHR hits
system.cpu.dcache.ReadReq_mshr_hits::total       139825                       # number of ReadReq MSHR hits
system.cpu.dcache.ReadReq_mshr_misses::.cpu.data        29446                       # number of ReadReq MSHR misses
system.cpu.dcache.ReadReq_mshr_misses::total        29446                       # number of ReadReq MSHR misses
system.cpu.dcache.ReadReq_mshr_miss_latency::.cpu.data    609671792                       # number of ReadReq MSHR miss cycles
system.cpu.dcache.ReadReq_mshr_miss_latency::total    609671792                       # number of ReadReq MSHR miss cycles
system.cpu.dcache.ReadReq_mshr_miss_rate::.cpu.data     0.010687                       # mshr miss rate for ReadReq accesses
system.cpu.dcache.ReadReq_mshr_miss_rate::total     0.010687                       # mshr miss rate for ReadReq accesses
system.cpu.dcache.ReadReq_avg_mshr_miss_latency::.cpu.data 20704.740610                       # average ReadReq mshr miss latency
system.cpu.dcache.ReadReq_avg_mshr_miss_latency::total 20704.740610                       # average ReadReq mshr miss latency
system.cpu.dcache.WriteReq_hits::.cpu.data       132223                       # number of WriteReq hits
system.cpu.dcache.WriteReq_hits::total         132223                       # number of WriteReq hits
system.cpu.dcache.WriteReq_misses::.cpu.data          441                       # number of WriteReq misses
system.cpu.dcache.WriteReq_misses::total          441                       # number of WriteReq misses
system.cpu.dcache.WriteReq_miss_latency::.cpu.data     14025099                       # number of WriteReq miss cycles
system.cpu.dcache.WriteReq_miss_latency::total     14025099                       # number of WriteReq miss cycles
system.cpu.dcache.WriteReq_accesses::.cpu.data       132664                       # number of WriteReq accesses(hits+misses)
system.cpu.dcache.WriteReq_accesses::total       132664                       # number of WriteReq accesses(hits+misses)
system.cpu.dcache.WriteReq_miss_rate::.cpu.data     0.003324                       # miss rate for WriteReq accesses
system.cpu.dcache.WriteReq_miss_rate::total     0.003324                       # miss rate for WriteReq accesses
system.cpu.dcache.WriteReq_avg_miss_latency::.cpu.data 31802.945578                       # average WriteReq miss latency
system.cpu.dcache.WriteReq_avg_miss_latency::total 31802.945578                       # average WriteReq miss latency
system.cpu.dcache.WriteReq_mshr_hits::.cpu.data            1                       # number of WriteReq MSHR hits
system.cpu.dcache.WriteReq_mshr_hits::total            1                       # number of WriteReq MSHR hits
system.cpu.dcache.WriteReq_mshr_misses::.cpu.data          440                       # number of WriteReq MSHR misses
system.cpu.dcache.WriteReq_mshr_misses::total          440                       # number of WriteReq MSHR misses
system.cpu.dcache.WriteReq_mshr_miss_latency::.cpu.data     13526923                       # number of WriteReq MSHR miss cycles
system.cpu.dcache.WriteReq_mshr_miss_latency::total     13526923                       # number of WriteReq MSHR miss cycles
system.cpu.dcache.WriteReq_mshr_miss_rate::.cpu.data     0.003317                       # mshr miss rate for WriteReq accesses
system.cpu.dcache.WriteReq_mshr_miss_rate::total     0.003317                       # mshr miss rate for WriteReq accesses
system.cpu.dcache.WriteReq_avg_mshr_miss_latency::.cpu.data 30743.006818                       # average WriteReq mshr miss latency
system.cpu.dcache.WriteReq_avg_mshr_miss_latency::total 30743.006818                       # average WriteReq mshr miss latency
system.cpu.dcache.power_state.pwrStateResidencyTicks::UNDEFINED   2208668856                       # Cumulative time (in ticks) in various power states
system.cpu.dcache.tags.tagsinuse           977.950245                       # Cycle average of tags in use
system.cpu.dcache.tags.total_refs             2748176                       # Total number of references to valid blocks.
system.cpu.dcache.tags.sampled_refs             29886                       # Sample count of references to valid blocks.
system.cpu.dcache.tags.avg_refs             91.955297                       # Average number of references to valid blocks.
system.cpu.dcache.tags.warmup_cycle            181812                       # Cycle when the warmup percentage was hit.
system.cpu.dcache.tags.occ_blocks::.cpu.data   977.950245                       # Average occupied blocks per requestor
system.cpu.dcache.tags.occ_percent::.cpu.data     0.955030                       # Average percentage of cache occupancy
system.cpu.dcache.tags.occ_percent::total     0.955030                       # Average percentage of cache occupancy
system.cpu.dcache.tags.occ_task_id_blocks::1024         1024                       # Occupied blocks per task id
system.cpu.dcache.tags.age_task_id_blocks_1024::0          133                       # Occupied blocks per task id
system.cpu.dcache.tags.age_task_id_blocks_1024::1          182                       # Occupied blocks per task id
system.cpu.dcache.tags.age_task_id_blocks_1024::2          503                       # Occupied blocks per task id
system.cpu.dcache.tags.age_task_id_blocks_1024::3          206                       # Occupied blocks per task id
system.cpu.dcache.tags.occ_task_id_percent::1024            1                       # Percentage of cache occupancy per task id
system.cpu.dcache.tags.tag_accesses          46237918                       # Number of tag accesses
system.cpu.dcache.tags.data_accesses         46237918                       # Number of data accesses
system.cpu.dcache.tags.power_state.pwrStateResidencyTicks::UNDEFINED   2208668856                       # Cumulative time (in ticks) in various power states
system.cpu.decode.idleCycles                  1599343                       # Number of cycles decode is idle
system.cpu.decode.blockedCycles                266481                       # Number of cycles decode is blocked
system.cpu.decode.runCycles                   2061619                       # Number of cycles decode is running
system.cpu.decode.unblockCycles                  9318                       # Number of cycles decode is unblocking
system.cpu.decode.squashCycles                    891                       # Number of cycles decode is squashing
system.cpu.decode.branchResolved               263655                       # Number of times decode resolved a  branch
system.cpu.decode.branchMispred                   216                       # Number of times decode detected a branch misprediction
system.cpu.decode.decodedInsts               14496750                       # Number of instructions handled by decode
system.cpu.decode.squashedInsts                  1122                       # Number of squashed instructions handled by decode
system.cpu.dtb.rdAccesses                     2755610                       # TLB accesses on read requests
system.cpu.dtb.wrAccesses                      133175                       # TLB accesses on write requests
system.cpu.dtb.rdMisses                           127                       # TLB misses on read requests
system.cpu.dtb.wrMisses                            23                       # TLB misses on write requests
system.cpu.dtb.walker.power_state.pwrStateResidencyTicks::UNDEFINED   2208668856                       # Cumulative time (in ticks) in various power states
system.cpu.dtb_walker_cache.blocked_cycles::no_mshrs            0                       # number of cycles access was blocked
system.cpu.dtb_walker_cache.blocked_cycles::no_targets            0                       # number of cycles access was blocked
system.cpu.dtb_walker_cache.blocked::no_mshrs            0                       # number of cycles access was blocked
system.cpu.dtb_walker_cache.blocked::no_targets            0                       # number of cycles access was blocked
system.cpu.dtb_walker_cache.avg_blocked_cycles::no_mshrs          nan                       # average number of cycles each access was blocked
system.cpu.dtb_walker_cache.avg_blocked_cycles::no_targets          nan                       # average number of cycles each access was blocked
system.cpu.dtb_walker_cache.replacements            0                       # number of replacements
system.cpu.dtb_walker_cache.power_state.pwrStateResidencyTicks::UNDEFINED   2208668856                       # Cumulative time (in ticks) in various power states
system.cpu.dtb_walker_cache.tags.tagsinuse            0                       # Cycle average of tags in use
system.cpu.dtb_walker_cache.tags.total_refs            0                       # Total number of references to valid blocks.
system.cpu.dtb_walker_cache.tags.sampled_refs            0                       # Sample count of references to valid blocks.
system.cpu.dtb_walker_cache.tags.avg_refs          nan                       # Average number of references to valid blocks.
system.cpu.dtb_walker_cache.tags.warmup_cycle            0                       # Cycle when the warmup percentage was hit.
system.cpu.dtb_walker_cache.tags.tag_accesses            0                       # Number of tag accesses
system.cpu.dtb_walker_cache.tags.data_accesses            0                       # Number of data accesses
system.cpu.dtb_walker_cache.tags.power_state.pwrStateResidencyTicks::UNDEFINED   2208668856                       # Cumulative time (in ticks) in various power states
system.cpu.fetch.icacheStallCycles            1100441                       # Number of cycles fetch is stalled on an Icache miss
system.cpu.fetch.insts                        8119119                       # Number of instructions fetch has processed
system.cpu.fetch.branches                      299111                       # Number of branches that fetch encountered
system.cpu.fetch.predictedBranches             263816                       # Number of branches that fetch has predicted taken
system.cpu.fetch.cycles                       2835151                       # Number of cycles fetch has run and was not squashing or blocked
system.cpu.fetch.squashCycles                    2200                       # Number of cycles fetch has spent squashing
system.cpu.fetch.miscStallCycles                  135                       # Number of cycles fetch has spent waiting on interrupts,or bad addresses, or out of MSHRs
system.cpu.fetch.pendingTrapStallCycles           799                       # Number of stall cycles due to pending traps
system.cpu.fetch.pendingQuiesceStallCycles           17                       # Number of stall cycles due to pending quiesce instructions
system.cpu.fetch.icacheWaitRetryStallCycles            9                       # Number of stall cycles due to full MSHR
system.cpu.fetch.cacheLines                   1084987                       # Number of cache lines fetched
system.cpu.fetch.icacheSquashes                   325                       # Number of outstanding Icache misses that were squashed
system.cpu.fetch.nisnDist::samples            3937652                       # Number of instructions fetched each cycle (Total)
system.cpu.fetch.nisnDist::mean              3.682568                       # Number of instructions fetched each cycle (Total)
system.cpu.fetch.nisnDist::stdev             3.896911                       # Number of instructions fetched each cycle (Total)
system.cpu.fetch.nisnDist::underflows               0      0.00%      0.00% # Number of instructions fetched each cycle (Total)
system.cpu.fetch.nisnDist::0                  1862634     47.30%     47.30% # Number of instructions fetched each cycle (Total)
system.cpu.fetch.nisnDist::1                   264505      6.72%     54.02% # Number of instructions fetched each cycle (Total)
system.cpu.fetch.nisnDist::2                      832      0.02%     54.04% # Number of instructions fetched each cycle (Total)
system.cpu.fetch.nisnDist::3                    33625      0.85%     54.90% # Number of instructions fetched each cycle (Total)
system.cpu.fetch.nisnDist::4                      806      0.02%     54.92% # Number of instructions fetched each cycle (Total)
system.cpu.fetch.nisnDist::5                      709      0.02%     54.93% # Number of instructions fetched each cycle (Total)
system.cpu.fetch.nisnDist::6                    33441      0.85%     55.78% # Number of instructions fetched each cycle (Total)
system.cpu.fetch.nisnDist::7                     2589      0.07%     55.85% # Number of instructions fetched each cycle (Total)
system.cpu.fetch.nisnDist::8                  1738511     44.15%    100.00% # Number of instructions fetched each cycle (Total)
system.cpu.fetch.nisnDist::overflows                0      0.00%    100.00% # Number of instructions fetched each cycle (Total)
system.cpu.fetch.nisnDist::min_value                0                       # Number of instructions fetched each cycle (Total)
system.cpu.fetch.nisnDist::max_value                8                       # Number of instructions fetched each cycle (Total)
system.cpu.fetch.nisnDist::total              3937652                       # Number of instructions fetched each cycle (Total)
system.cpu.fetch.branchRate                  0.075297                       # Number of branch fetches per cycle
system.cpu.fetch.rate                        2.043869                       # Number of inst fetches per cycle
system.cpu.icache.demand_hits::.cpu.inst      1084392                       # number of demand (read+write) hits
system.cpu.icache.demand_hits::total          1084392                       # number of demand (read+write) hits
system.cpu.icache.overall_hits::.cpu.inst      1084392                       # number of overall hits
system.cpu.icache.overall_hits::total         1084392                       # number of overall hits
system.cpu.icache.demand_misses::.cpu.inst          595                       # number of demand (read+write) misses
system.cpu.icache.demand_misses::total            595                       # number of demand (read+write) misses
system.cpu.icache.overall_misses::.cpu.inst          595                       # number of overall misses
system.cpu.icache.overall_misses::total           595                       # number of overall misses
system.cpu.icache.demand_miss_latency::.cpu.inst     46553324                       # number of demand (read+write) miss cycles
system.cpu.icache.demand_miss_latency::total     46553324                       # number of demand (read+write) miss cycles
system.cpu.icache.overall_miss_latency::.cpu.inst     46553324                       # number of overall miss cycles
system.cpu.icache.overall_miss_latency::total     46553324                       # number of overall miss cycles
system.cpu.icache.demand_accesses::.cpu.inst      1084987                       # number of demand (read+write) accesses
system.cpu.icache.demand_accesses::total      1084987                       # number of demand (read+write) accesses
system.cpu.icache.overall_accesses::.cpu.inst      1084987                       # number of overall (read+write) accesses
system.cpu.icache.overall_accesses::total      1084987                       # number of overall (read+write) accesses
system.cpu.icache.demand_miss_rate::.cpu.inst     0.000548                       # miss rate for demand accesses
system.cpu.icache.demand_miss_rate::total     0.000548                       # miss rate for demand accesses
system.cpu.icache.overall_miss_rate::.cpu.inst     0.000548                       # miss rate for overall accesses
system.cpu.icache.overall_miss_rate::total     0.000548                       # miss rate for overall accesses
system.cpu.icache.demand_avg_miss_latency::.cpu.inst 78240.880672                       # average overall miss latency
system.cpu.icache.demand_avg_miss_latency::total 78240.880672                       # average overall miss latency
system.cpu.icache.overall_avg_miss_latency::.cpu.inst 78240.880672                       # average overall miss latency
system.cpu.icache.overall_avg_miss_latency::total 78240.880672                       # average overall miss latency
system.cpu.icache.blocked_cycles::no_mshrs           21                       # number of cycles access was blocked
system.cpu.icache.blocked_cycles::no_targets            0                       # number of cycles access was blocked
system.cpu.icache.blocked::no_mshrs                 2                       # number of cycles access was blocked
system.cpu.icache.blocked::no_targets               0                       # number of cycles access was blocked
system.cpu.icache.avg_blocked_cycles::no_mshrs    10.500000                       # average number of cycles each access was blocked
system.cpu.icache.avg_blocked_cycles::no_targets          nan                       # average number of cycles each access was blocked
system.cpu.icache.writebacks::.writebacks           20                       # number of writebacks
system.cpu.icache.writebacks::total                20                       # number of writebacks
system.cpu.icache.demand_mshr_hits::.cpu.inst          138                       # number of demand (read+write) MSHR hits
system.cpu.icache.demand_mshr_hits::total          138                       # number of demand (read+write) MSHR hits
system.cpu.icache.overall_mshr_hits::.cpu.inst          138                       # number of overall MSHR hits
system.cpu.icache.overall_mshr_hits::total          138                       # number of overall MSHR hits
system.cpu.icache.demand_mshr_misses::.cpu.inst          457                       # number of demand (read+write) MSHR misses
system.cpu.icache.demand_mshr_misses::total          457                       # number of demand (read+write) MSHR misses
system.cpu.icache.overall_mshr_misses::.cpu.inst          457                       # number of overall MSHR misses
system.cpu.icache.overall_mshr_misses::total          457                       # number of overall MSHR misses
system.cpu.icache.demand_mshr_miss_latency::.cpu.inst     38234452                       # number of demand (read+write) MSHR miss cycles
system.cpu.icache.demand_mshr_miss_latency::total     38234452                       # number of demand (read+write) MSHR miss cycles
system.cpu.icache.overall_mshr_miss_latency::.cpu.inst     38234452                       # number of overall MSHR miss cycles
system.cpu.icache.overall_mshr_miss_latency::total     38234452                       # number of overall MSHR miss cycles
system.cpu.icache.demand_mshr_miss_rate::.cpu.inst     0.000421                       # mshr miss rate for demand accesses
system.cpu.icache.demand_mshr_miss_rate::total     0.000421                       # mshr miss rate for demand accesses
system.cpu.icache.overall_mshr_miss_rate::.cpu.inst     0.000421                       # mshr miss rate for overall accesses
system.cpu.icache.overall_mshr_miss_rate::total     0.000421                       # mshr miss rate for overall accesses
system.cpu.icache.demand_avg_mshr_miss_latency::.cpu.inst 83664.008753                       # average overall mshr miss latency
system.cpu.icache.demand_avg_mshr_miss_latency::total 83664.008753                       # average overall mshr miss latency
system.cpu.icache.overall_avg_mshr_miss_latency::.cpu.inst 83664.008753                       # average overall mshr miss latency
system.cpu.icache.overall_avg_mshr_miss_latency::total 83664.008753                       # average overall mshr miss latency
system.cpu.icache.replacements                     20                       # number of replacements
system.cpu.icache.ReadReq_hits::.cpu.inst      1084392                       # number of ReadReq hits
system.cpu.icache.ReadReq_hits::total         1084392                       # number of ReadReq hits
system.cpu.icache.ReadReq_misses::.cpu.inst          595                       # number of ReadReq misses
system.cpu.icache.ReadReq_misses::total           595                       # number of ReadReq misses
system.cpu.icache.ReadReq_miss_latency::.cpu.inst     46553324                       # number of ReadReq miss cycles
system.cpu.icache.ReadReq_miss_latency::total     46553324                       # number of ReadReq miss cycles
system.cpu.icache.ReadReq_accesses::.cpu.inst      1084987                       # number of ReadReq accesses(hits+misses)
system.cpu.icache.ReadReq_accesses::total      1084987                       # number of ReadReq accesses(hits+misses)
system.cpu.icache.ReadReq_miss_rate::.cpu.inst     0.000548                       # miss rate for ReadReq accesses
system.cpu.icache.ReadReq_miss_rate::total     0.000548                       # miss rate for ReadReq accesses
system.cpu.icache.ReadReq_avg_miss_latency::.cpu.inst 78240.880672                       # average ReadReq miss latency
system.cpu.icache.ReadReq_avg_miss_latency::total 78240.880672                       # average ReadReq miss latency
system.cpu.icache.ReadReq_mshr_hits::.cpu.inst          138                       # number of ReadReq MSHR hits
system.cpu.icache.ReadReq_mshr_hits::total          138                       # number of ReadReq MSHR hits
system.cpu.icache.ReadReq_mshr_misses::.cpu.inst          457                       # number of ReadReq MSHR misses
system.cpu.icache.ReadReq_mshr_misses::total          457                       # number of ReadReq MSHR misses
system.cpu.icache.ReadReq_mshr_miss_latency::.cpu.inst     38234452                       # number of ReadReq MSHR miss cycles
system.cpu.icache.ReadReq_mshr_miss_latency::total     38234452                       # number of ReadReq MSHR miss cycles
system.cpu.icache.ReadReq_mshr_miss_rate::.cpu.inst     0.000421                       # mshr miss rate for ReadReq accesses
system.cpu.icache.ReadReq_mshr_miss_rate::total     0.000421                       # mshr miss rate for ReadReq accesses
system.cpu.icache.ReadReq_avg_mshr_miss_latency::.cpu.inst 83664.008753                       # average ReadReq mshr miss latency
system.cpu.icache.ReadReq_avg_mshr_miss_latency::total 83664.008753                       # average ReadReq mshr miss latency
system.cpu.icache.power_state.pwrStateResidencyTicks::UNDEFINED   2208668856                       # Cumulative time (in ticks) in various power states
system.cpu.icache.tags.tagsinuse           394.150538                       # Cycle average of tags in use
system.cpu.icache.tags.total_refs             1084849                       # Total number of references to valid blocks.
system.cpu.icache.tags.sampled_refs               457                       # Sample count of references to valid blocks.
system.cpu.icache.tags.avg_refs           2373.849015                       # Average number of references to valid blocks.
system.cpu.icache.tags.warmup_cycle             88960                       # Cycle when the warmup percentage was hit.
system.cpu.icache.tags.occ_blocks::.cpu.inst   394.150538                       # Average occupied blocks per requestor
system.cpu.icache.tags.occ_percent::.cpu.inst     0.384913                       # Average percentage of cache occupancy
system.cpu.icache.tags.occ_percent::total     0.384913                       # Average percentage of cache occupancy
system.cpu.icache.tags.occ_task_id_blocks::1024          437                       # Occupied blocks per task id
system.cpu.icache.tags.age_task_id_blocks_1024::0           42                       # Occupied blocks per task id
system.cpu.icache.tags.age_task_id_blocks_1024::2            1                       # Occupied blocks per task id
system.cpu.icache.tags.age_task_id_blocks_1024::3          394                       # Occupied blocks per task id
system.cpu.icache.tags.occ_task_id_percent::1024     0.426758                       # Percentage of cache occupancy per task id
system.cpu.icache.tags.tag_accesses           2170431                       # Number of tag accesses
system.cpu.icache.tags.data_accesses          2170431                       # Number of data accesses
system.cpu.icache.tags.power_state.pwrStateResidencyTicks::UNDEFINED   2208668856                       # Cumulative time (in ticks) in various power states
system.cpu.interrupts.clk_domain.clock           8896                       # Clock period in ticks
system.cpu.itb.rdAccesses                           0                       # TLB accesses on read requests
system.cpu.itb.wrAccesses                     1085126                       # TLB accesses on write requests
system.cpu.itb.rdMisses                             0                       # TLB misses on read requests
system.cpu.itb.wrMisses                           182                       # TLB misses on write requests
system.cpu.itb.walker.power_state.pwrStateResidencyTicks::UNDEFINED   2208668856                       # Cumulative time (in ticks) in various power states
system.cpu.itb_walker_cache.blocked_cycles::no_mshrs            0                       # number of cycles access was blocked
system.cpu.itb_walker_cache.blocked_cycles::no_targets            0                       # number of cycles access was blocked
system.cpu.itb_walker_cache.blocked::no_mshrs            0                       # number of cycles access was blocked
system.cpu.itb_walker_cache.blocked::no_targets            0                       # number of cycles access was blocked
system.cpu.itb_walker_cache.avg_blocked_cycles::no_mshrs          nan                       # average number of cycles each access was blocked
system.cpu.itb_walker_cache.avg_blocked_cycles::no_targets          nan                       # average number of cycles each access was blocked
system.cpu.itb_walker_cache.replacements            0                       # number of replacements
system.cpu.itb_walker_cache.power_state.pwrStateResidencyTicks::UNDEFINED   2208668856                       # Cumulative time (in ticks) in various power states
system.cpu.itb_walker_cache.tags.tagsinuse            0                       # Cycle average of tags in use
system.cpu.itb_walker_cache.tags.total_refs            0                       # Total number of references to valid blocks.
system.cpu.itb_walker_cache.tags.sampled_refs            0                       # Sample count of references to valid blocks.
system.cpu.itb_walker_cache.tags.avg_refs          nan                       # Average number of references to valid blocks.
system.cpu.itb_walker_cache.tags.warmup_cycle            0                       # Cycle when the warmup percentage was hit.
system.cpu.itb_walker_cache.tags.tag_accesses            0                       # Number of tag accesses
system.cpu.itb_walker_cache.tags.data_accesses            0                       # Number of data accesses
system.cpu.itb_walker_cache.tags.power_state.pwrStateResidencyTicks::UNDEFINED   2208668856                       # Cumulative time (in ticks) in various power states
system.cpu.lsq0.forwLoads                         202                       # Number of loads that had data forwarded from stores
system.cpu.lsq0.squashedLoads                    2623                       # Number of loads squashed
system.cpu.lsq0.ignoredResponses                    1                       # Number of memory responses ignored because the instruction is squashed
system.cpu.lsq0.memOrderViolation                   9                       # Number of memory ordering violations
system.cpu.lsq0.squashedStores                    940                       # Number of stores squashed
system.cpu.lsq0.rescheduledLoads                    0                       # Number of loads that were rescheduled
system.cpu.lsq0.blockedByCache                   1510                       # Number of times an access to memory failed due to the cache being blocked
system.cpu.power_state.pwrStateResidencyTicks::ON   2208668856                       # Cumulative time (in ticks) in various power states
system.cpu.rename.squashCycles                    891                       # Number of cycles rename is squashing
system.cpu.rename.idleCycles                  1604200                       # Number of cycles rename is idle
system.cpu.rename.blockCycles                   36323                       # Number of cycles rename is blocking
system.cpu.rename.serializeStallCycles             35                       # count of cycles rename stalledfor serializing inst
system.cpu.rename.runCycles                   2065870                       # Number of cycles rename is running
system.cpu.rename.unblockCycles                230333                       # Number of cycles rename is unblocking
system.cpu.rename.renamedInsts               14494603                       # Number of instructions processed by rename
system.cpu.rename.ROBFullEvents                 17968                       # Number of times rename has blocked due to ROB full
system.cpu.rename.IQFullEvents                  92650                       # Number of times rename has blocked due to IQ full
system.cpu.rename.LQFullEvents                 209971                       # Number of times rename has blocked due to LQ full
system.cpu.rename.SQFullEvents                   6145                       # Number of times rename has blocked due to SQ full
system.cpu.rename.renamedOperands            15810069                       # Number of destination operands rename has renamed
system.cpu.rename.lookups                    26337372                       # Number of register rename lookups that rename has made
system.cpu.rename.intLookups                  8115977                       # Number of integer rename lookups
system.cpu.rename.fpLookups                  13371192                       # Number of floating rename lookups
system.cpu.rename.committedMaps              15785244                       # Number of HB maps that are committed
system.cpu.rename.undoneMaps                    24811                       # Number of HB maps that are undone due to squashing
system.cpu.rename.serializing                       4                       # count of serializing insts renamed
system.cpu.rename.tempSerializing                   4                       # count of temporary serializing insts renamed
system.cpu.rename.skidInsts                     47808                       # count of insts added to the skid buffer
system.cpu.rob.reads                         17537052                       # The number of ROB reads
system.cpu.rob.writes                        28977675                       # The number of ROB writes
system.cpu.thread_0.numInsts                  8104173                       # Number of Instructions committed
system.cpu.thread_0.numOps                   14470629                       # Number of Ops committed
system.cpu.thread_0.numMemRefs                      0                       # Number of Memory References
system.cpu_clk_domain.clock                       556                       # Clock period in ticks
system.cpu_voltage_domain.voltage                   1                       # Voltage in Volts
system.l2.demand_hits::.cpu.inst                    3                       # number of demand (read+write) hits
system.l2.demand_hits::.cpu.data                26588                       # number of demand (read+write) hits
system.l2.demand_hits::total                    26591                       # number of demand (read+write) hits
system.l2.overall_hits::.cpu.inst                   3                       # number of overall hits
system.l2.overall_hits::.cpu.data               26588                       # number of overall hits
system.l2.overall_hits::total                   26591                       # number of overall hits
system.l2.demand_misses::.cpu.inst                454                       # number of demand (read+write) misses
system.l2.demand_misses::.cpu.data               3298                       # number of demand (read+write) misses
system.l2.demand_misses::total                   3752                       # number of demand (read+write) misses
system.l2.overall_misses::.cpu.inst               454                       # number of overall misses
system.l2.overall_misses::.cpu.data              3298                       # number of overall misses
system.l2.overall_misses::total                  3752                       # number of overall misses
system.l2.demand_miss_latency::.cpu.inst     37432700                       # number of demand (read+write) miss cycles
system.l2.demand_miss_latency::.cpu.data    261787596                       # number of demand (read+write) miss cycles
system.l2.demand_miss_latency::total        299220296                       # number of demand (read+write) miss cycles
system.l2.overall_miss_latency::.cpu.inst     37432700                       # number of overall miss cycles
system.l2.overall_miss_latency::.cpu.data    261787596                       # number of overall miss cycles
system.l2.overall_miss_latency::total       299220296                       # number of overall miss cycles
system.l2.demand_accesses::.cpu.inst              457                       # number of demand (read+write) accesses
system.l2.demand_accesses::.cpu.data            29886                       # number of demand (read+write) accesses
system.l2.demand_accesses::total                30343                       # number of demand (read+write) accesses
system.l2.overall_accesses::.cpu.inst             457                       # number of overall (read+write) accesses
system.l2.overall_accesses::.cpu.data           29886                       # number of overall (read+write) accesses
system.l2.overall_accesses::total               30343                       # number of overall (read+write) accesses
system.l2.demand_miss_rate::.cpu.inst        0.993435                       # miss rate for demand accesses
system.l2.demand_miss_rate::.cpu.data        0.110353                       # miss rate for demand accesses
system.l2.demand_miss_rate::total            0.123653                       # miss rate for demand accesses
system.l2.overall_miss_rate::.cpu.inst       0.993435                       # miss rate for overall accesses
system.l2.overall_miss_rate::.cpu.data       0.110353                       # miss rate for overall accesses
system.l2.overall_miss_rate::total           0.123653                       # miss rate for overall accesses
system.l2.demand_avg_miss_latency::.cpu.inst 82450.881057                       # average overall miss latency
system.l2.demand_avg_miss_latency::.cpu.data 79377.682232                       # average overall miss latency
system.l2.demand_avg_miss_latency::total 79749.545842                       # average overall miss latency
system.l2.overall_avg_miss_latency::.cpu.inst 82450.881057                       # average overall miss latency
system.l2.overall_avg_miss_latency::.cpu.data 79377.682232                       # average overall miss latency
system.l2.overall_avg_miss_latency::total 79749.545842                       # average overall miss latency
system.l2.blocked_cycles::no_mshrs                  0                       # number of cycles access was blocked
system.l2.blocked_cycles::no_targets                0                       # number of cycles access was blocked
[...]
system.mem_ctrls.dram.bw_total::.cpu.inst     13155435                       # Total bandwidth to/from this memory (bytes/s)
system.mem_ctrls.dram.bw_total::.cpu.data     95565254                       # Total bandwidth to/from this memory (bytes/s)
system.mem_ctrls.dram.bw_total::total       108720689                       # Total bandwidth to/from this memory (bytes/s)
system.mem_ctrls.dram.readBursts                 3752                       # Number of DRAM read bursts
system.mem_ctrls.dram.writeBursts                   0                       # Number of DRAM write bursts
system.mem_ctrls.dram.perBankRdBursts::0          222                       # Per bank write bursts
system.mem_ctrls.dram.perBankRdBursts::1          301                       # Per bank write bursts
system.mem_ctrls.dram.perBankRdBursts::2          264                       # Per bank write bursts
system.mem_ctrls.dram.perBankRdBursts::3          263                       # Per bank write bursts
system.mem_ctrls.dram.perBankRdBursts::4          263                       # Per bank write bursts
system.mem_ctrls.dram.perBankRdBursts::5          266                       # Per bank write bursts
system.mem_ctrls.dram.perBankRdBursts::6          331                       # Per bank write bursts
system.mem_ctrls.dram.perBankRdBursts::7          284                       # Per bank write bursts
system.mem_ctrls.dram.perBankRdBursts::8          281                       # Per bank write bursts
system.mem_ctrls.dram.perBankRdBursts::9          182                       # Per bank write bursts
system.mem_ctrls.dram.perBankRdBursts::10          146                       # Per bank write bursts
system.mem_ctrls.dram.perBankRdBursts::11          201                       # Per bank write bursts
system.mem_ctrls.dram.perBankRdBursts::12          184                       # Per bank write bursts
system.mem_ctrls.dram.perBankRdBursts::13          140                       # Per bank write bursts
system.mem_ctrls.dram.perBankRdBursts::14          187                       # Per bank write bursts
system.mem_ctrls.dram.perBankRdBursts::15          237                       # Per bank write bursts
system.mem_ctrls.dram.perBankWrBursts::0            0                       # Per bank write bursts
system.mem_ctrls.dram.perBankWrBursts::1            0                       # Per bank write bursts
system.mem_ctrls.dram.perBankWrBursts::2            0                       # Per bank write bursts
system.mem_ctrls.dram.perBankWrBursts::3            0                       # Per bank write bursts
system.mem_ctrls.dram.perBankWrBursts::4            0                       # Per bank write bursts
system.mem_ctrls.dram.perBankWrBursts::5            0                       # Per bank write bursts
system.mem_ctrls.dram.perBankWrBursts::6            0                       # Per bank write bursts
system.mem_ctrls.dram.perBankWrBursts::7            0                       # Per bank write bursts
system.mem_ctrls.dram.perBankWrBursts::8            0                       # Per bank write bursts
system.mem_ctrls.dram.perBankWrBursts::9            0                       # Per bank write bursts
system.mem_ctrls.dram.perBankWrBursts::10            0                       # Per bank write bursts
system.mem_ctrls.dram.perBankWrBursts::11            0                       # Per bank write bursts
system.mem_ctrls.dram.perBankWrBursts::12            0                       # Per bank write bursts
system.mem_ctrls.dram.perBankWrBursts::13            0                       # Per bank write bursts
system.mem_ctrls.dram.perBankWrBursts::14            0                       # Per bank write bursts
system.mem_ctrls.dram.perBankWrBursts::15            0                       # Per bank write bursts
system.mem_ctrls.dram.totQLat                26531288                       # Total ticks spent queuing
system.mem_ctrls.dram.totBusLat              18760000                       # Total ticks spent in databus transfers
system.mem_ctrls.dram.totMemAccLat           96881288                       # Total ticks spent from burst creation until serviced by the DRAM
system.mem_ctrls.dram.avgQLat                 7071.24                       # Average queueing delay per DRAM burst
system.mem_ctrls.dram.avgBusLat               5000.00                       # Average bus latency per DRAM burst
system.mem_ctrls.dram.avgMemAccLat           25821.24                       # Average memory access latency per DRAM burst
system.mem_ctrls.dram.readRowHits                3211                       # Number of row buffer hits during reads
system.mem_ctrls.dram.writeRowHits                  0                       # Number of row buffer hits during writes
system.mem_ctrls.dram.readRowHitRate            85.58                       # Row buffer hit rate for reads
system.mem_ctrls.dram.writeRowHitRate             nan                       # Row buffer hit rate for writes
system.mem_ctrls.dram.bytesPerActivate::samples          530                       # Bytes accessed per row activation
system.mem_ctrls.dram.bytesPerActivate::mean   448.483019                       # Bytes accessed per row activation
system.mem_ctrls.dram.bytesPerActivate::gmean   291.360227                       # Bytes accessed per row activation
system.mem_ctrls.dram.bytesPerActivate::stdev   354.364642                       # Bytes accessed per row activation
system.mem_ctrls.dram.bytesPerActivate::0-127          115     21.70%     21.70% # Bytes accessed per row activation
system.mem_ctrls.dram.bytesPerActivate::128-255           91     17.17%     38.87% # Bytes accessed per row activation
system.mem_ctrls.dram.bytesPerActivate::256-383           26      4.91%     43.77% # Bytes accessed per row activation
system.mem_ctrls.dram.bytesPerActivate::384-511           80     15.09%     58.87% # Bytes accessed per row activation
system.mem_ctrls.dram.bytesPerActivate::512-639           75     14.15%     73.02% # Bytes accessed per row activation
system.mem_ctrls.dram.bytesPerActivate::640-767            5      0.94%     73.96% # Bytes accessed per row activation
system.mem_ctrls.dram.bytesPerActivate::768-895           20      3.77%     77.74% # Bytes accessed per row activation
system.mem_ctrls.dram.bytesPerActivate::896-1023           23      4.34%     82.08% # Bytes accessed per row activation
system.mem_ctrls.dram.bytesPerActivate::1024-1151           95     17.92%    100.00% # Bytes accessed per row activation
system.mem_ctrls.dram.bytesPerActivate::total          530                       # Bytes accessed per row activation
system.mem_ctrls.dram.bytesRead                240128                       # Total number of bytes read from DRAM
system.mem_ctrls.dram.bytesWritten                  0                       # Total number of bytes written to DRAM
system.mem_ctrls.dram.avgRdBW              108.720689                       # Average DRAM read bandwidth in MiBytes/s
system.mem_ctrls.dram.avgWrBW                       0                       # Average DRAM write bandwidth in MiBytes/s
system.mem_ctrls.dram.peakBW                 12800.00                       # Theoretical peak bandwidth in MiByte/s
system.mem_ctrls.dram.busUtil                    0.85                       # Data bus utilization in percentage
system.mem_ctrls.dram.busUtilRead                0.85                       # Data bus utilization in percentage for reads
system.mem_ctrls.dram.busUtilWrite               0.00                       # Data bus utilization in percentage for writes
system.mem_ctrls.dram.pageHitRate               85.58                       # Row buffer hit rate, read and write combined
system.mem_ctrls.dram.power_state.pwrStateResidencyTicks::UNDEFINED   2208668856                       # Cumulative time (in ticks) in various power states
system.mem_ctrls.dram.rank0.actEnergy         2349060                       # Energy for activate commands per rank (pJ)
system.mem_ctrls.dram.rank0.preEnergy         1225785                       # Energy for precharge commands per rank (pJ)
system.mem_ctrls.dram.rank0.readEnergy       15665160                       # Energy for read commands per rank (pJ)
system.mem_ctrls.dram.rank0.writeEnergy             0                       # Energy for write commands per rank (pJ)
system.mem_ctrls.dram.rank0.refreshEnergy 173943120.000000                       # Energy for refresh commands per rank (pJ)
system.mem_ctrls.dram.rank0.actBackEnergy    290192130                       # Energy for active background per rank (pJ)
system.mem_ctrls.dram.rank0.preBackEnergy    603756960                       # Energy for precharge background per rank (pJ)
system.mem_ctrls.dram.rank0.actPowerDownEnergy            0                       # Energy for active power-down per rank (pJ)
system.mem_ctrls.dram.rank0.prePowerDownEnergy            0                       # Energy for precharge power-down per rank (pJ)
system.mem_ctrls.dram.rank0.selfRefreshEnergy            0                       # Energy for self refresh per rank (pJ)
system.mem_ctrls.dram.rank0.totalEnergy    1087132215                       # Total energy per rank (pJ)
system.mem_ctrls.dram.rank0.averagePower   492.211502                       # Core power per rank (mW)
system.mem_ctrls.dram.rank0.totalIdleTime            0                       # Total Idle time Per DRAM Rank
system.mem_ctrls.dram.rank0.pwrStateTime::IDLE   1566271614                       # Time in different power states
system.mem_ctrls.dram.rank0.pwrStateTime::REF     73580000                       # Time in different power states
system.mem_ctrls.dram.rank0.pwrStateTime::SREF            0                       # Time in different power states
system.mem_ctrls.dram.rank0.pwrStateTime::PRE_PDN            0                       # Time in different power states
system.mem_ctrls.dram.rank0.pwrStateTime::ACT    568817242                       # Time in different power states
system.mem_ctrls.dram.rank0.pwrStateTime::ACT_PDN            0                       # Time in different power states
system.mem_ctrls.dram.rank1.actEnergy         1513680                       # Energy for activate commands per rank (pJ)
system.mem_ctrls.dram.rank1.preEnergy          785565                       # Energy for precharge commands per rank (pJ)
system.mem_ctrls.dram.rank1.readEnergy       11124120                       # Energy for read commands per rank (pJ)
system.mem_ctrls.dram.rank1.writeEnergy             0                       # Energy for write commands per rank (pJ)
system.mem_ctrls.dram.rank1.refreshEnergy 173943120.000000                       # Energy for refresh commands per rank (pJ)
system.mem_ctrls.dram.rank1.actBackEnergy    179756910                       # Energy for active background per rank (pJ)
system.mem_ctrls.dram.rank1.preBackEnergy    696755040                       # Energy for precharge background per rank (pJ)
system.mem_ctrls.dram.rank1.actPowerDownEnergy            0                       # Energy for active power-down per rank (pJ)
system.mem_ctrls.dram.rank1.prePowerDownEnergy            0                       # Energy for precharge power-down per rank (pJ)
system.mem_ctrls.dram.rank1.selfRefreshEnergy            0                       # Energy for self refresh per rank (pJ)
system.mem_ctrls.dram.rank1.totalEnergy    1063878435                       # Total energy per rank (pJ)
system.mem_ctrls.dram.rank1.averagePower   481.683088                       # Core power per rank (mW)
system.mem_ctrls.dram.rank1.totalIdleTime            0                       # Total Idle time Per DRAM Rank
system.mem_ctrls.dram.rank1.pwrStateTime::IDLE   1809697662                       # Time in different power states
system.mem_ctrls.dram.rank1.pwrStateTime::REF     73580000                       # Time in different power states
system.mem_ctrls.dram.rank1.pwrStateTime::SREF            0                       # Time in different power states
system.mem_ctrls.dram.rank1.pwrStateTime::PRE_PDN            0                       # Time in different power states
system.mem_ctrls.dram.rank1.pwrStateTime::ACT    325391194                       # Time in different power states
system.mem_ctrls.dram.rank1.pwrStateTime::ACT_PDN            0                       # Time in different power states
system.mem_ctrls.power_state.pwrStateResidencyTicks::UNDEFINED   2208668856                       # Cumulative time (in ticks) in various power states
system.membus.trans_dist::ReadResp               3645                       # Transaction distribution
system.membus.trans_dist::ReadExReq               107                       # Transaction distribution
system.membus.trans_dist::ReadExResp              107                       # Transaction distribution
system.membus.trans_dist::ReadSharedReq          3645                       # Transaction distribution
system.membus.pkt_count_system.l2.mem_side_port::system.mem_ctrls.port         7504                       # Packet count per connected requestor and responder (bytes)
system.membus.pkt_count_system.l2.mem_side_port::total         7504                       # Packet count per connected requestor and responder (bytes)
system.membus.pkt_count::total                   7504                       # Packet count per connected requestor and responder (bytes)
system.membus.pkt_size_system.l2.mem_side_port::system.mem_ctrls.port       240128                       # Cumulative packet size per connected requestor and responder (bytes)
system.membus.pkt_size_system.l2.mem_side_port::total       240128                       # Cumulative packet size per connected requestor and responder (bytes)
system.membus.pkt_size::total                  240128                       # Cumulative packet size per connected requestor and responder (bytes)
system.membus.snoops                                0                       # Total snoops (count)
system.membus.snoopTraffic                          0                       # Total snoop traffic (bytes)
system.membus.snoop_fanout::samples              3752                       # Request fanout histogram
system.membus.snoop_fanout::mean                    0                       # Request fanout histogram
system.membus.snoop_fanout::stdev                   0                       # Request fanout histogram
system.membus.snoop_fanout::underflows              0      0.00%      0.00% # Request fanout histogram
system.membus.snoop_fanout::0                    3752    100.00%    100.00% # Request fanout histogram
system.membus.snoop_fanout::1                       0      0.00%    100.00% # Request fanout histogram
system.membus.snoop_fanout::overflows               0      0.00%    100.00% # Request fanout histogram
system.membus.snoop_fanout::min_value               0                       # Request fanout histogram
system.membus.snoop_fanout::max_value               0                       # Request fanout histogram
system.membus.snoop_fanout::total                3752                       # Request fanout histogram
system.membus.power_state.pwrStateResidencyTicks::UNDEFINED   2208668856                       # Cumulative time (in ticks) in various power states
system.membus.reqLayer2.occupancy             5619276                       # Layer occupancy (ticks)
system.membus.reqLayer2.utilization               0.3                       # Layer utilization (%)
system.membus.respLayer1.occupancy           19826826                       # Layer occupancy (ticks)
system.membus.respLayer1.utilization              0.9                       # Layer utilization (%)
system.tol2bus.trans_dist::ReadResp             29903                       # Transaction distribution
system.tol2bus.trans_dist::WritebackDirty        16009                       # Transaction distribution
system.tol2bus.trans_dist::WritebackClean           20                       # Transaction distribution
system.tol2bus.trans_dist::CleanEvict           12853                       # Transaction distribution
system.tol2bus.trans_dist::ReadExReq              440                       # Transaction distribution
system.tol2bus.trans_dist::ReadExResp             440                       # Transaction distribution
system.tol2bus.trans_dist::ReadCleanReq           457                       # Transaction distribution
system.tol2bus.trans_dist::ReadSharedReq        29446                       # Transaction distribution
system.tol2bus.pkt_count_system.cpu.icache.mem_side_port::system.l2.cpu_side_port          934                       # Packet count per connected requestor and responder (bytes)
system.tol2bus.pkt_count_system.cpu.dcache.mem_side_port::system.l2.cpu_side_port        88634                       # Packet count per connected requestor and responder (bytes)
system.tol2bus.pkt_count::total                 89568                       # Packet count per connected requestor and responder (bytes)
system.tol2bus.pkt_size_system.cpu.icache.mem_side_port::system.l2.cpu_side_port        30528                       # Cumulative packet size per connected requestor and responder (bytes)
system.tol2bus.pkt_size_system.cpu.dcache.mem_side_port::system.l2.cpu_side_port      2937280                       # Cumulative packet size per connected requestor and responder (bytes)
system.tol2bus.pkt_size::total                2967808                       # Cumulative packet size per connected requestor and responder (bytes)
system.tol2bus.snoops                               0                       # Total snoops (count)
system.tol2bus.snoopTraffic                         0                       # Total snoop traffic (bytes)
system.tol2bus.snoop_fanout::samples            30343                       # Request fanout histogram
system.tol2bus.snoop_fanout::mean                   0                       # Request fanout histogram
system.tol2bus.snoop_fanout::stdev                  0                       # Request fanout histogram
system.tol2bus.snoop_fanout::underflows             0      0.00%      0.00% # Request fanout histogram
system.tol2bus.snoop_fanout::0                  30343    100.00%    100.00% # Request fanout histogram
system.tol2bus.snoop_fanout::1                      0      0.00%    100.00% # Request fanout histogram
system.tol2bus.snoop_fanout::2                      0      0.00%    100.00% # Request fanout histogram
system.tol2bus.snoop_fanout::3                      0      0.00%    100.00% # Request fanout histogram
system.tol2bus.snoop_fanout::4                      0      0.00%    100.00% # Request fanout histogram
system.tol2bus.snoop_fanout::overflows              0      0.00%    100.00% # Request fanout histogram
system.tol2bus.snoop_fanout::min_value              0                       # Request fanout histogram
system.tol2bus.snoop_fanout::max_value              0                       # Request fanout histogram
system.tol2bus.snoop_fanout::total              30343                       # Request fanout histogram
system.tol2bus.power_state.pwrStateResidencyTicks::UNDEFINED   2208668856                       # Cumulative time (in ticks) in various power states
system.tol2bus.reqLayer0.occupancy           50753348                       # Layer occupancy (ticks)
system.tol2bus.reqLayer0.utilization              2.3                       # Layer utilization (%)
system.tol2bus.respLayer0.occupancy            762276                       # Layer occupancy (ticks)
system.tol2bus.respLayer0.utilization             0.0                       # Layer utilization (%)
system.tol2bus.respLayer1.occupancy          49849848                       # Layer occupancy (ticks)
system.tol2bus.respLayer1.utilization             2.3                       # Layer utilization (%)
system.voltage_domain.voltage                       1                       # Voltage in Volts

---------- End Simulation Statistics   ----------
