
---------- Begin Simulation Statistics ----------
final_tick                                 1997945000                       # Number of ticks from beginning of simulation (restored from checkpoints and never reset)
host_inst_rate                                 249067                       # Simulator instruction rate (inst/s)
host_mem_usage                                 654584                       # Number of bytes of host memory used
host_op_rate                                   444726                       # Simulator op (including micro ops) rate (op/s)
host_seconds                                    32.54                       # Real time elapsed on the host
host_tick_rate                               61402874                       # Simulator tick rate (ticks/s)
sim_freq                                 1000000000000                       # Frequency of simulated ticks
sim_insts                                     8104173                       # Number of instructions simulated
sim_ops                                      14470629                       # Number of ops (including micro ops) simulated
sim_seconds                                  0.001998                       # Number of seconds simulated
sim_ticks                                  1997945000                       # Number of ticks simulated
system.cpu.cc_regfile_reads                   1486334                       # number of cc regfile reads
system.cpu.cc_regfile_writes                  1779137                       # number of cc regfile writes
system.cpu.committedInsts                     8104173                       # Number of Instructions Simulated
system.cpu.committedOps                      14470629                       # Number of Ops (including micro ops) Simulated
system.cpu.cpi                               0.493066                       # CPI: Cycles Per Instruction
system.cpu.cpi_total                         0.493066                       # CPI: Total CPI of All Threads
system.cpu.fp_regfile_reads                  13370854                       # number of floating regfile reads
system.cpu.fp_regfile_writes                 11863808                       # number of floating regfile writes
system.cpu.idleCycles                           37717                       # Total number of cycles that the CPU has spent unscheduled due to idling
system.cpu.iew.branchMispredicts                  982                       # Number of branch mispredicts detected at execute
system.cpu.iew.exec_branches                   297486                       # Number of branches executed
system.cpu.iew.exec_nop                             0                       # number of nop insts executed
system.cpu.iew.exec_rate                     3.627465                       # Inst execution rate
system.cpu.iew.exec_refs                      2771281                       # number of memory reference insts executed
system.cpu.iew.exec_stores                     133173                       # Number of stores executed
system.cpu.iew.exec_swp                             0                       # number of swp insts executed
system.cpu.iew.iewBlockCycles                    7611                       # Number of cycles IEW is blocking
system.cpu.iew.iewDispLoadInsts               2625545                       # Number of dispatched load instructions
system.cpu.iew.iewDispNonSpecInsts                  2                       # Number of dispatched non-speculative instructions
system.cpu.iew.iewDispSquashedInsts                88                       # Number of squashed instructions skipped by dispatch
system.cpu.iew.iewDispStoreInsts               133598                       # Number of dispatched store instructions
system.cpu.iew.iewDispatchedInsts            14487684                       # Number of instructions dispatched to IQ
system.cpu.iew.iewExecLoadInsts               2638108                       # Number of load instructions executed
system.cpu.iew.iewExecSquashedInsts              2591                       # Number of squashed instructions skipped in execute
system.cpu.iew.iewExecutedInsts              14494954                       # Number of executed instructions
system.cpu.iew.iewIQFullEvents                   1029                       # Number of times the IQ has become full, causing a stall
system.cpu.iew.iewIdleCycles                        0                       # Number of cycles IEW is idle
system.cpu.iew.iewLSQFullEvents                  1445                       # Number of times the LSQ has become full, causing a stall
system.cpu.iew.iewSquashCycles                    899                       # Number of cycles IEW is squashing
system.cpu.iew.iewUnblockCycles                  2570                       # Number of cycles IEW is unblocking
system.cpu.iew.memOrderViolationEvents              9                       # Number of memory order violations
system.cpu.iew.predictedNotTakenIncorrect          654                       # Number of branches that were predicted not taken incorrectly
system.cpu.iew.predictedTakenIncorrect            328                       # Number of branches that were predicted taken incorrectly
system.cpu.iew.wb_consumers                  10301354                       # num instructions consuming a value
system.cpu.iew.wb_count                      14480166                       # cumulative count of insts written-back
system.cpu.iew.wb_fanout                     0.675954                       # average fanout of values written-back
system.cpu.iew.wb_producers                   6963237                       # num instructions producing a value
system.cpu.iew.wb_rate                       3.623764                       # insts written-back per cycle
system.cpu.iew.wb_sent                       14480577                       # cumulative count of insts sent to commit
system.cpu.int_regfile_reads                  8127731                       # number of integer regfile reads
system.cpu.int_regfile_writes                 2152393                       # number of integer regfile writes
system.cpu.ipc                               2.028127                       # IPC: Instructions Per Cycle
system.cpu.ipc_total                         2.028127                       # IPC: Total IPC of All Threads
system.cpu.iq.FU_type_0::No_OpClass              1003      0.01%      0.01% # Type of FU issued
system.cpu.iq.FU_type_0::IntAlu               2546663     17.57%     17.57% # Type of FU issued
system.cpu.iq.FU_type_0::IntMult                    5      0.00%     17.57% # Type of FU issued
system.cpu.iq.FU_type_0::IntDiv                    21      0.00%     17.57% # Type of FU issued
system.cpu.iq.FU_type_0::FloatAdd             4720919     32.56%     50.14% # Type of FU issued
system.cpu.iq.FU_type_0::FloatCmp                   0      0.00%     50.14% # Type of FU issued
system.cpu.iq.FU_type_0::FloatCvt                   0      0.00%     50.14% # Type of FU issued
system.cpu.iq.FU_type_0::FloatMult                  0      0.00%     50.14% # Type of FU issued
system.cpu.iq.FU_type_0::FloatMultAcc               0      0.00%     50.14% # Type of FU issued
system.cpu.iq.FU_type_0::FloatDiv                   0      0.00%     50.14% # Type of FU issued
system.cpu.iq.FU_type_0::FloatMisc                  0      0.00%     50.14% # Type of FU issued
system.cpu.iq.FU_type_0::FloatSqrt                  0      0.00%     50.14% # Type of FU issued
system.cpu.iq.FU_type_0::SimdAdd                    0      0.00%     50.14% # Type of FU issued
system.cpu.iq.FU_type_0::SimdAddAcc                 0      0.00%     50.14% # Type of FU issued
system.cpu.iq.FU_type_0::SimdAlu                  157      0.00%     50.14% # Type of FU issued
system.cpu.iq.FU_type_0::SimdCmp                    0      0.00%     50.14% # Type of FU issued
system.cpu.iq.FU_type_0::SimdCvt                   46      0.00%     50.14% # Type of FU issued
system.cpu.iq.FU_type_0::SimdMisc              262366      1.81%     51.95% # Type of FU issued
system.cpu.iq.FU_type_0::SimdMult                   0      0.00%     51.95% # Type of FU issued
system.cpu.iq.FU_type_0::SimdMultAcc                0      0.00%     51.95% # Type of FU issued
system.cpu.iq.FU_type_0::SimdShift                  0      0.00%     51.95% # Type of FU issued
system.cpu.iq.FU_type_0::SimdShiftAcc               0      0.00%     51.95% # Type of FU issued
system.cpu.iq.FU_type_0::SimdDiv                    0      0.00%     51.95% # Type of FU issued
system.cpu.iq.FU_type_0::SimdSqrt                   0      0.00%     51.95% # Type of FU issued
system.cpu.iq.FU_type_0::SimdFloatAdd         2097152     14.47%     66.41% # Type of FU issued
system.cpu.iq.FU_type_0::SimdFloatAlu               0      0.00%     66.41% # Type of FU issued
system.cpu.iq.FU_type_0::SimdFloatCmp               0      0.00%     66.41% # Type of FU issued
system.cpu.iq.FU_type_0::SimdFloatCvt               1      0.00%     66.41% # Type of FU issued
system.cpu.iq.FU_type_0::SimdFloatDiv               0      0.00%     66.41% # Type of FU issued
system.cpu.iq.FU_type_0::SimdFloatMisc              0      0.00%     66.41% # Type of FU issued
system.cpu.iq.FU_type_0::SimdFloatMult        2097152     14.47%     80.88% # Type of FU issued
system.cpu.iq.FU_type_0::SimdFloatMultAcc            0      0.00%     80.88% # Type of FU issued
system.cpu.iq.FU_type_0::SimdFloatSqrt              0      0.00%     80.88% # Type of FU issued
system.cpu.iq.FU_type_0::SimdReduceAdd              0      0.00%     80.88% # Type of FU issued
system.cpu.iq.FU_type_0::SimdReduceAlu              0      0.00%     80.88% # Type of FU issued
system.cpu.iq.FU_type_0::SimdReduceCmp              0      0.00%     80.88% # Type of FU issued
system.cpu.iq.FU_type_0::SimdFloatReduceAdd            0      0.00%     80.88% # Type of FU issued
system.cpu.iq.FU_type_0::SimdFloatReduceCmp            0      0.00%     80.88% # Type of FU issued
system.cpu.iq.FU_type_0::SimdAes                    0      0.00%     80.88% # Type of FU issued
system.cpu.iq.FU_type_0::SimdAesMix                 0      0.00%     80.88% # Type of FU issued
system.cpu.iq.FU_type_0::SimdSha1Hash               0      0.00%     80.88% # Type of FU issued
system.cpu.iq.FU_type_0::SimdSha1Hash2              0      0.00%     80.88% # Type of FU issued
system.cpu.iq.FU_type_0::SimdSha256Hash             0      0.00%     80.88% # Type of FU issued
system.cpu.iq.FU_type_0::SimdSha256Hash2            0      0.00%     80.88% # Type of FU issued
system.cpu.iq.FU_type_0::SimdShaSigma2              0      0.00%     80.88% # Type of FU issued
system.cpu.iq.FU_type_0::SimdShaSigma3              0      0.00%     80.88% # Type of FU issued
system.cpu.iq.FU_type_0::SimdPredAlu                0      0.00%     80.88% # Type of FU issued
system.cpu.iq.FU_type_0::MemRead                 2717      0.02%     80.90% # Type of FU issued
system.cpu.iq.FU_type_0::MemWrite                1648      0.01%     80.91% # Type of FU issued
system.cpu.iq.FU_type_0::FloatMemRead         2636101     18.18%     99.09% # Type of FU issued
system.cpu.iq.FU_type_0::FloatMemWrite         131600      0.91%    100.00% # Type of FU issued
system.cpu.iq.FU_type_0::IprAccess                  0      0.00%    100.00% # Type of FU issued
system.cpu.iq.FU_type_0::InstPrefetch               0      0.00%    100.00% # Type of FU issued
system.cpu.iq.FU_type_0::total               14497551                       # Type of FU issued
system.cpu.iq.fp_alu_accesses                12314585                       # Number of floating point alu accesses
system.cpu.iq.fp_inst_queue_reads            24326300                       # Number of floating instruction queue reads
system.cpu.iq.fp_inst_queue_wakeup_accesses     11995443                       # Number of floating instruction queue wakeup accesses
system.cpu.iq.fp_inst_queue_writes           12002455                       # Number of floating instruction queue writes
system.cpu.iq.fu_busy_cnt                      303672                       # FU busy when requested
system.cpu.iq.fu_busy_rate                   0.020946                       # FU busy rate (busy events/executed inst)
system.cpu.iq.fu_full::No_OpClass                   0      0.00%      0.00% # attempts to use FU when none available
system.cpu.iq.fu_full::IntAlu                     209      0.07%      0.07% # attempts to use FU when none available
system.cpu.iq.fu_full::IntMult                      0      0.00%      0.07% # attempts to use FU when none available
system.cpu.iq.fu_full::IntDiv                       0      0.00%      0.07% # attempts to use FU when none available
system.cpu.iq.fu_full::FloatAdd                 82019     27.01%     27.08% # attempts to use FU when none available
system.cpu.iq.fu_full::FloatCmp                     0      0.00%     27.08% # attempts to use FU when none available
system.cpu.iq.fu_full::FloatCvt                     0      0.00%     27.08% # attempts to use FU when none available
system.cpu.iq.fu_full::FloatMult                    0      0.00%     27.08% # attempts to use FU when none available
system.cpu.iq.fu_full::FloatMultAcc                 0      0.00%     27.08% # attempts to use FU when none available
system.cpu.iq.fu_full::FloatDiv                     0      0.00%     27.08% # attempts to use FU when none available
system.cpu.iq.fu_full::FloatMisc                    0      0.00%     27.08% # attempts to use FU when none available
system.cpu.iq.fu_full::FloatSqrt                    0      0.00%     27.08% # attempts to use FU when none available
system.cpu.iq.fu_full::SimdAdd                      0      0.00%     27.08% # attempts to use FU when none available
system.cpu.iq.fu_full::SimdAddAcc                   0      0.00%     27.08% # attempts to use FU when none available
system.cpu.iq.fu_full::SimdAlu                     10      0.00%     27.08% # attempts to use FU when none available
system.cpu.iq.fu_full::SimdCmp                      0      0.00%     27.08% # attempts to use FU when none available
system.cpu.iq.fu_full::SimdCvt                      1      0.00%     27.08% # attempts to use FU when none available
system.cpu.iq.fu_full::SimdMisc                 33336     10.98%     38.06% # attempts to use FU when none available
system.cpu.iq.fu_full::SimdMult                     0      0.00%     38.06% # attempts to use FU when none available
system.cpu.iq.fu_full::SimdMultAcc                  0      0.00%     38.06% # attempts to use FU when none available
system.cpu.iq.fu_full::SimdShift                    0      0.00%     38.06% # attempts to use FU when none available
system.cpu.iq.fu_full::SimdShiftAcc                 0      0.00%     38.06% # attempts to use FU when none available
system.cpu.iq.fu_full::SimdDiv                      0      0.00%     38.06% # attempts to use FU when none available
system.cpu.iq.fu_full::SimdSqrt                     0      0.00%     38.06% # attempts to use FU when none available
system.cpu.iq.fu_full::SimdFloatAdd             75396     24.83%     62.89% # attempts to use FU when none available
system.cpu.iq.fu_full::SimdFloatAlu                 0      0.00%     62.89% # attempts to use FU when none available
system.cpu.iq.fu_full::SimdFloatCmp                 0      0.00%     62.89% # attempts to use FU when none available
system.cpu.iq.fu_full::SimdFloatCvt                 0      0.00%     62.89% # attempts to use FU when none available
system.cpu.iq.fu_full::SimdFloatDiv                 0      0.00%     62.89% # attempts to use FU when none available
system.cpu.iq.fu_full::SimdFloatMisc                0      0.00%     62.89% # attempts to use FU when none available
system.cpu.iq.fu_full::SimdFloatMult           110081     36.25%     99.14% # attempts to use FU when none available
system.cpu.iq.fu_full::SimdFloatMultAcc             0      0.00%     99.14% # attempts to use FU when none available
system.cpu.iq.fu_full::SimdFloatSqrt                0      0.00%     99.14% # attempts to use FU when none available
system.cpu.iq.fu_full::SimdReduceAdd                0      0.00%     99.14% # attempts to use FU when none available
system.cpu.iq.fu_full::SimdReduceAlu                0      0.00%     99.14% # attempts to use FU when none available
system.cpu.iq.fu_full::SimdReduceCmp                0      0.00%     99.14% # attempts to use FU when none available
system.cpu.iq.fu_full::SimdFloatReduceAdd            0      0.00%     99.14% # attempts to use FU when none available
system.cpu.iq.fu_full::SimdFloatReduceCmp            0      0.00%     99.14% # attempts to use FU when none available
system.cpu.iq.fu_full::SimdAes                      0      0.00%     99.14% # attempts to use FU when none available
system.cpu.iq.fu_full::SimdAesMix                   0      0.00%     99.14% # attempts to use FU when none available
system.cpu.iq.fu_full::SimdSha1Hash                 0      0.00%     99.14% # attempts to use FU when none available
system.cpu.iq.fu_full::SimdSha1Hash2                0      0.00%     99.14% # attempts to use FU when none available
system.cpu.iq.fu_full::SimdSha256Hash               0      0.00%     99.14% # attempts to use FU when none available
system.cpu.iq.fu_full::SimdSha256Hash2              0      0.00%     99.14% # attempts to use FU when none available
system.cpu.iq.fu_full::SimdShaSigma2                0      0.00%     99.14% # attempts to use FU when none available
system.cpu.iq.fu_full::SimdShaSigma3                0      0.00%     99.14% # attempts to use FU when none available
system.cpu.iq.fu_full::SimdPredAlu                  0      0.00%     99.14% # attempts to use FU when none available
system.cpu.iq.fu_full::MemRead                     30      0.01%     99.15% # attempts to use FU when none available
system.cpu.iq.fu_full::MemWrite                    19      0.01%     99.15% # attempts to use FU when none available
system.cpu.iq.fu_full::FloatMemRead              2564      0.84%    100.00% # attempts to use FU when none available
system.cpu.iq.fu_full::FloatMemWrite                7      0.00%    100.00% # attempts to use FU when none available
system.cpu.iq.fu_full::IprAccess                    0      0.00%    100.00% # attempts to use FU when none available
system.cpu.iq.fu_full::InstPrefetch                 0      0.00%    100.00% # attempts to use FU when none available
system.cpu.iq.int_alu_accesses                2485635                       # Number of integer alu accesses
system.cpu.iq.int_inst_queue_reads            8931221                       # Number of integer instruction queue reads
system.cpu.iq.int_inst_queue_wakeup_accesses      2484723                       # Number of integer instruction queue wakeup accesses
system.cpu.iq.int_inst_queue_writes           2502278                       # Number of integer instruction queue writes
system.cpu.iq.iqInstsAdded                   14487682                       # Number of instructions added to the IQ (excludes non-spec)
system.cpu.iq.iqInstsIssued                  14497551                       # Number of instructions issued
system.cpu.iq.iqNonSpecInstsAdded                   2                       # Number of non-speculative instructions added to the IQ
system.cpu.iq.iqSquashedInstsExamined           17041                       # Number of squashed instructions iterated over during squash; mainly for profiling
system.cpu.iq.iqSquashedInstsIssued               579                       # Number of squashed instructions issued
system.cpu.iq.iqSquashedNonSpecRemoved              2                       # Number of squashed non-spec instructions that were removed
system.cpu.iq.iqSquashedOperandsExamined        17976                       # Number of squashed operands that are examined and possibly removed from graph
system.cpu.iq.issued_per_cycle::samples       3958174                       # Number of insts issued each cycle
system.cpu.iq.issued_per_cycle::mean         3.662687                       # Number of insts issued each cycle
system.cpu.iq.issued_per_cycle::stdev        2.734815                       # Number of insts issued each cycle
system.cpu.iq.issued_per_cycle::underflows            0      0.00%      0.00% # Number of insts issued each cycle
system.cpu.iq.issued_per_cycle::0              393666      9.95%      9.95% # Number of insts issued each cycle
system.cpu.iq.issued_per_cycle::1             1088575     27.50%     37.45% # Number of insts issued each cycle
system.cpu.iq.issued_per_cycle::2              300729      7.60%     45.05% # Number of insts issued each cycle
system.cpu.iq.issued_per_cycle::3              197091      4.98%     50.02% # Number of insts issued each cycle
system.cpu.iq.issued_per_cycle::4              288717      7.29%     57.32% # Number of insts issued each cycle
system.cpu.iq.issued_per_cycle::5              264388      6.68%     64.00% # Number of insts issued each cycle
system.cpu.iq.issued_per_cycle::6              559209     14.13%     78.13% # Number of insts issued each cycle
system.cpu.iq.issued_per_cycle::7              542209     13.70%     91.82% # Number of insts issued each cycle
system.cpu.iq.issued_per_cycle::8              323590      8.18%    100.00% # Number of insts issued each cycle
system.cpu.iq.issued_per_cycle::overflows            0      0.00%    100.00% # Number of insts issued each cycle
system.cpu.iq.issued_per_cycle::min_value            0                       # Number of insts issued each cycle
system.cpu.iq.issued_per_cycle::max_value            8                       # Number of insts issued each cycle
system.cpu.iq.issued_per_cycle::total         3958174                       # Number of insts issued each cycle
system.cpu.iq.rate                           3.628115                       # Inst issue rate
system.cpu.iq.vec_alu_accesses                      0                       # Number of vector alu accesses
system.cpu.iq.vec_inst_queue_reads                  0                       # Number of vector instruction queue reads
system.cpu.iq.vec_inst_queue_wakeup_accesses            0                       # Number of vector instruction queue wakeup accesses
system.cpu.iq.vec_inst_queue_writes                 0                       # Number of vector instruction queue writes
system.cpu.memDep0.conflictingLoads                27                       # Number of conflicting loads.
system.cpu.memDep0.conflictingStores               13                       # Number of conflicting stores.
system.cpu.memDep0.insertedLoads              2625545                       # Number of loads inserted to the mem dependence unit.
system.cpu.memDep0.insertedStores              133598                       # Number of stores inserted to the mem dependence unit.
system.cpu.misc_regfile_reads                 3367281                       # number of misc regfile reads
system.cpu.numCycles                          3995891                       # number of cpu cycles simulated
system.cpu.numWorkItemsCompleted                    0                       # number of work items this cpu completed
system.cpu.numWorkItemsStarted                      0                       # number of work items this cpu started
system.cpu.timesIdled                             324                       # Number of times that the entire CPU went into an idle state and unscheduled itself
system.cpu.workload.numSyscalls                    10                       # Number of system calls
system.membus.snoop_filter.hit_multi_requests            0                       # Number of requests hitting in the snoop filter with multiple (>1) holders of the requested data.
system.membus.snoop_filter.hit_multi_snoops            0                       # Number of snoops hitting in the snoop filter with multiple (>1) holders of the requested data.
system.membus.snoop_filter.hit_single_requests           15                       # Number of requests hitting in the snoop filter with a single holder of the requested data.
system.membus.snoop_filter.hit_single_snoops            0                       # Number of snoops hitting in the snoop filter with a single holder of the requested data.
system.membus.snoop_filter.tot_requests          3769                       # Total number of requests made to the snoop filter.
system.membus.snoop_filter.tot_snoops               0                       # Total number of snoops made to the snoop filter.
system.tol2bus.snoop_filter.hit_multi_requests            0                       # Number of requests hitting in the snoop filter with multiple (>1) holders of the requested data.
system.tol2bus.snoop_filter.hit_multi_snoops            0                       # Number of snoops hitting in the snoop filter with multiple (>1) holders of the requested data.
system.tol2bus.snoop_filter.hit_single_requests        47170                       # Number of requests hitting in the snoop filter with a single holder of the requested data.
system.tol2bus.snoop_filter.hit_single_snoops          340                       # Number of snoops hitting in the snoop filter with a single holder of the requested data.
system.tol2bus.snoop_filter.tot_requests        95801                       # Total number of requests made to the snoop filter.
system.tol2bus.snoop_filter.tot_snoops            340                       # Total number of snoops made to the snoop filter.
system.clk_domain.clock                          1000                       # Clock period in ticks
system.cpu.branchPred.lookups                  299121                       # Number of BP lookups
system.cpu.branchPred.condPredicted            297948                       # Number of conditional branches predicted
system.cpu.branchPred.condIncorrect               956                       # Number of conditional branches incorrect
system.cpu.branchPred.BTBLookups               264266                       # Number of BTB lookups
system.cpu.branchPred.BTBHits                  263521                       # Number of BTB hits
system.cpu.branchPred.BTBHitPct             99.718087                       # BTB Hit Percentage
system.cpu.branchPred.RASUsed                     281                       # Number of times the RAS was used to get a target.
system.cpu.branchPred.RASIncorrect                  0                       # Number of incorrect RAS predictions.
system.cpu.branchPred.indirectLookups             295                       # Number of indirect predictor lookups.
system.cpu.branchPred.indirectHits                 18                       # Number of indirect target hits.
system.cpu.branchPred.indirectMisses              277                       # Number of indirect misses.
system.cpu.branchPred.indirectMispredicted           89                       # Number of mispredicted indirect branches.
system.cpu.commit.commitSquashedInsts           16933                       # The number of squashed insts skipped by commit
system.cpu.commit.branchMispredicts               879                       # The number of times a branch was mispredicted
system.cpu.commit.numCommittedDist::samples      3955620                       # Number of insts commited each cycle
system.cpu.commit.numCommittedDist::mean     3.658245                       # Number of insts commited each cycle
system.cpu.commit.numCommittedDist::stdev     3.268263                       # Number of insts commited each cycle
system.cpu.commit.numCommittedDist::underflows            0      0.00%      0.00% # Number of insts commited each cycle
system.cpu.commit.numCommittedDist::0         1194419     30.20%     30.20% # Number of insts commited each cycle
system.cpu.commit.numCommittedDist::1          416723     10.53%     40.73% # Number of insts commited each cycle
system.cpu.commit.numCommittedDist::2          252523      6.38%     47.11% # Number of insts commited each cycle
system.cpu.commit.numCommittedDist::3           35179      0.89%     48.00% # Number of insts commited each cycle
system.cpu.commit.numCommittedDist::4          286117      7.23%     55.24% # Number of insts commited each cycle
system.cpu.commit.numCommittedDist::5          569811     14.41%     69.64% # Number of insts commited each cycle
system.cpu.commit.numCommittedDist::6           61565      1.56%     71.20% # Number of insts commited each cycle
system.cpu.commit.numCommittedDist::7           33854      0.86%     72.05% # Number of insts commited each cycle
system.cpu.commit.numCommittedDist::8         1105429     27.95%    100.00% # Number of insts commited each cycle
system.cpu.commit.numCommittedDist::overflows            0      0.00%    100.00% # Number of insts commited each cycle
system.cpu.commit.numCommittedDist::min_value            0                       # Number of insts commited each cycle
system.cpu.commit.numCommittedDist::max_value            8                       # Number of insts commited each cycle
system.cpu.commit.numCommittedDist::total      3955620                       # Number of insts commited each cycle
system.cpu.commit.instsCommitted              8104173                       # Number of instructions committed
system.cpu.commit.opsCommitted               14470629                       # Number of ops (including micro ops) committed
system.cpu.commit.memRefs                     2755586                       # Number of memory references committed
system.cpu.commit.loads                       2622923                       # Number of loads committed
system.cpu.commit.amos                              0                       # Number of atomic instructions committed
system.cpu.commit.membars                           0                       # Number of memory barriers committed
system.cpu.commit.branches                     296838                       # Number of branches committed
system.cpu.commit.vector                            0                       # Number of committed Vector instructions.
system.cpu.commit.floating                   11994221                       # Number of committed floating point instructions.
system.cpu.commit.integer                     5196288                       # Number of committed integer instructions.
system.cpu.commit.functionCalls                   144                       # Number of function calls committed.
system.cpu.commit.committedInstType_0::No_OpClass          536      0.00%      0.00% # Class of committed instruction
system.cpu.commit.committedInstType_0::IntAlu      2538951     17.55%     17.55% # Class of committed instruction
system.cpu.commit.committedInstType_0::IntMult            5      0.00%     17.55% # Class of committed instruction
system.cpu.commit.committedInstType_0::IntDiv           21      0.00%     17.55% # Class of committed instruction
system.cpu.commit.committedInstType_0::FloatAdd      4718727     32.61%     50.16% # Class of committed instruction
system.cpu.commit.committedInstType_0::FloatCmp            0      0.00%     50.16% # Class of committed instruction
system.cpu.commit.committedInstType_0::FloatCvt            0      0.00%     50.16% # Class of committed instruction
system.cpu.commit.committedInstType_0::FloatMult            0      0.00%     50.16% # Class of committed instruction
system.cpu.commit.committedInstType_0::FloatMultAcc            0      0.00%     50.16% # Class of committed instruction
system.cpu.commit.committedInstType_0::FloatDiv            0      0.00%     50.16% # Class of committed instruction
system.cpu.commit.committedInstType_0::FloatMisc            0      0.00%     50.16% # Class of committed instruction
system.cpu.commit.committedInstType_0::FloatSqrt            0      0.00%     50.16% # Class of committed instruction
system.cpu.commit.committedInstType_0::SimdAdd            0      0.00%     50.16% # Class of committed instruction
system.cpu.commit.committedInstType_0::SimdAddAcc            0      0.00%     50.16% # Class of committed instruction
system.cpu.commit.committedInstType_0::SimdAlu           94      0.00%     50.16% # Class of committed instruction
system.cpu.commit.committedInstType_0::SimdCmp            0      0.00%     50.16% # Class of committed instruction
system.cpu.commit.committedInstType_0::SimdCvt           46      0.00%     50.16% # Class of committed instruction
system.cpu.commit.committedInstType_0::SimdMisc       262359      1.81%     51.97% # Class of committed instruction
system.cpu.commit.committedInstType_0::SimdMult            0      0.00%     51.97% # Class of committed instruction
system.cpu.commit.committedInstType_0::SimdMultAcc            0      0.00%     51.97% # Class of committed instruction
system.cpu.commit.committedInstType_0::SimdShift            0      0.00%     51.97% # Class of committed instruction
system.cpu.commit.committedInstType_0::SimdShiftAcc            0      0.00%     51.97% # Class of committed instruction
system.cpu.commit.committedInstType_0::SimdDiv            0      0.00%     51.97% # Class of committed instruction
system.cpu.commit.committedInstType_0::SimdSqrt            0      0.00%     51.97% # Class of committed instruction
system.cpu.commit.committedInstType_0::SimdFloatAdd      2097152     14.49%     66.46% # Class of committed instruction
system.cpu.commit.committedInstType_0::SimdFloatAlu            0      0.00%     66.46% # Class of committed instruction
system.cpu.commit.committedInstType_0::SimdFloatCmp            0      0.00%     66.46% # Class of committed instruction
system.cpu.commit.committedInstType_0::SimdFloatCvt            0      0.00%     66.46% # Class of committed instruction
system.cpu.commit.committedInstType_0::SimdFloatDiv            0      0.00%     66.46% # Class of committed instruction
system.cpu.commit.committedInstType_0::SimdFloatMisc            0      0.00%     66.46% # Class of committed instruction
system.cpu.commit.committedInstType_0::SimdFloatMult      2097152     14.49%     80.96% # Class of committed instruction
system.cpu.commit.committedInstType_0::SimdFloatMultAcc            0      0.00%     80.96% # Class of committed instruction
system.cpu.commit.committedInstType_0::SimdFloatSqrt            0      0.00%     80.96% # Class of committed instruction
system.cpu.commit.committedInstType_0::SimdReduceAdd            0      0.00%     80.96% # Class of committed instruction
system.cpu.commit.committedInstType_0::SimdReduceAlu            0      0.00%     80.96% # Class of committed instruction
system.cpu.commit.committedInstType_0::SimdReduceCmp            0      0.00%     80.96% # Class of committed instruction
system.cpu.commit.committedInstType_0::SimdFloatReduceAdd            0      0.00%     80.96% # Class of committed instruction
system.cpu.commit.committedInstType_0::SimdFloatReduceCmp            0      0.00%     80.96% # Class of committed instruction
system.cpu.commit.committedInstType_0::SimdAes            0      0.00%     80.96% # Class of committed instruction
system.cpu.commit.committedInstType_0::SimdAesMix            0      0.00%     80.96% # Class of committed instruction
system.cpu.commit.committedInstType_0::SimdSha1Hash            0      0.00%     80.96% # Class of committed instruction
system.cpu.commit.committedInstType_0::SimdSha1Hash2            0      0.00%     80.96% # Class of committed instruction
system.cpu.commit.committedInstType_0::SimdSha256Hash            0      0.00%     80.96% # Class of committed instruction
system.cpu.commit.committedInstType_0::SimdSha256Hash2            0      0.00%     80.96% # Class of committed instruction
system.cpu.commit.committedInstType_0::SimdShaSigma2            0      0.00%     80.96% # Class of committed instruction
system.cpu.commit.committedInstType_0::SimdShaSigma3            0      0.00%     80.96% # Class of committed instruction
system.cpu.commit.committedInstType_0::SimdPredAlu            0      0.00%     80.96% # Class of committed instruction
system.cpu.commit.committedInstType_0::MemRead         1437      0.01%     80.97% # Class of committed instruction
system.cpu.commit.committedInstType_0::MemWrite         1133      0.01%     80.98% # Class of committed instruction
system.cpu.commit.committedInstType_0::FloatMemRead      2621486     18.12%     99.09% # Class of committed instruction
system.cpu.commit.committedInstType_0::FloatMemWrite       131530      0.91%    100.00% # Class of committed instruction
system.cpu.commit.committedInstType_0::IprAccess            0      0.00%    100.00% # Class of committed instruction
system.cpu.commit.committedInstType_0::InstPrefetch            0      0.00%    100.00% # Class of committed instruction
system.cpu.commit.committedInstType_0::total     14470629                       # Class of committed instruction
system.cpu.commit.commitEligibleSamples       1105429                       # number cycles where commit BW limit reached
system.cpu.dcache.demand_hits::.cpu.data      2589669                       # number of demand (read+write) hits
system.cpu.dcache.demand_hits::total          2589669                       # number of demand (read+write) hits
system.cpu.dcache.overall_hits::.cpu.data      2589669                       # number of overall hits
system.cpu.dcache.overall_hits::total         2589669                       # number of overall hits
system.cpu.dcache.demand_misses::.cpu.data       298329                       # number of demand (read+write) misses
system.cpu.dcache.demand_misses::total         298329                       # number of demand (read+write) misses
system.cpu.dcache.overall_misses::.cpu.data       298329                       # number of overall misses
system.cpu.dcache.overall_misses::total        298329                       # number of overall misses
system.cpu.dcache.demand_miss_latency::.cpu.data   4732200999                       # number of demand (read+write) miss cycles
system.cpu.dcache.demand_miss_latency::total   4732200999                       # number of demand (read+write) miss cycles
system.cpu.dcache.overall_miss_latency::.cpu.data   4732200999                       # number of overall miss cycles
system.cpu.dcache.overall_miss_latency::total   4732200999                       # number of overall miss cycles
system.cpu.dcache.demand_accesses::.cpu.data      2887998                       # number of demand (read+write) accesses
system.cpu.dcache.demand_accesses::total      2887998                       # number of demand (read+write) accesses
system.cpu.dcache.overall_accesses::.cpu.data      2887998                       # number of overall (read+write) accesses
system.cpu.dcache.overall_accesses::total      2887998                       # number of overall (read+write) accesses
system.cpu.dcache.demand_miss_rate::.cpu.data     0.103300                       # miss rate for demand accesses
system.cpu.dcache.demand_miss_rate::total     0.103300                       # miss rate for demand accesses
system.cpu.dcache.overall_miss_rate::.cpu.data     0.103300                       # miss rate for overall accesses
system.cpu.dcache.overall_miss_rate::total     0.103300                       # miss rate for overall accesses
system.cpu.dcache.demand_avg_miss_latency::.cpu.data 15862.356657                       # average overall miss latency
system.cpu.dcache.demand_avg_miss_latency::total 15862.356657                       # average overall miss latency
system.cpu.dcache.overall_avg_miss_latency::.cpu.data 15862.356657                       # average overall miss latency
system.cpu.dcache.overall_avg_miss_latency::total 15862.356657                       # average overall miss latency
system.cpu.dcache.blocked_cycles::no_mshrs        39482                       # number of cycles access was blocked
system.cpu.dcache.blocked_cycles::no_targets            0                       # number of cycles access was blocked
system.cpu.dcache.blocked::no_mshrs              1853                       # number of cycles access was blocked
system.cpu.dcache.blocked::no_targets               0                       # number of cycles access was blocked
system.cpu.dcache.avg_blocked_cycles::no_mshrs    21.307070                       # average number of cycles each access was blocked
system.cpu.dcache.avg_blocked_cycles::no_targets          nan                       # average number of cycles each access was blocked
system.cpu.dcache.writebacks::.writebacks        36629                       # number of writebacks
system.cpu.dcache.writebacks::total             36629                       # number of writebacks
system.cpu.dcache.demand_mshr_hits::.cpu.data       250155                       # number of demand (read+write) MSHR hits
system.cpu.dcache.demand_mshr_hits::total       250155                       # number of demand (read+write) MSHR hits
system.cpu.dcache.overall_mshr_hits::.cpu.data       250155                       # number of overall MSHR hits
system.cpu.dcache.overall_mshr_hits::total       250155                       # number of overall MSHR hits
system.cpu.dcache.demand_mshr_misses::.cpu.data        48174                       # number of demand (read+write) MSHR misses
system.cpu.dcache.demand_mshr_misses::total        48174                       # number of demand (read+write) MSHR misses
system.cpu.dcache.overall_mshr_misses::.cpu.data        48174                       # number of overall MSHR misses
system.cpu.dcache.overall_mshr_misses::total        48174                       # number of overall MSHR misses
system.cpu.dcache.demand_mshr_miss_latency::.cpu.data    799222999                       # number of demand (read+write) MSHR miss cycles
system.cpu.dcache.demand_mshr_miss_latency::total    799222999                       # number of demand (read+write) MSHR miss cycles
system.cpu.dcache.overall_mshr_miss_latency::.cpu.data    799222999                       # number of overall MSHR miss cycles
system.cpu.dcache.overall_mshr_miss_latency::total    799222999                       # number of overall MSHR miss cycles
system.cpu.dcache.demand_mshr_miss_rate::.cpu.data     0.016681                       # mshr miss rate for demand accesses
system.cpu.dcache.demand_mshr_miss_rate::total     0.016681                       # mshr miss rate for demand accesses
system.cpu.dcache.overall_mshr_miss_rate::.cpu.data     0.016681                       # mshr miss rate for overall accesses
system.cpu.dcache.overall_mshr_miss_rate::total     0.016681                       # mshr miss rate for overall accesses
system.cpu.dcache.demand_avg_mshr_miss_latency::.cpu.data 16590.339166                       # average overall mshr miss latency
system.cpu.dcache.demand_avg_mshr_miss_latency::total 16590.339166                       # average overall mshr miss latency
system.cpu.dcache.overall_avg_mshr_miss_latency::.cpu.data 16590.339166                       # average overall mshr miss latency
system.cpu.dcache.overall_avg_mshr_miss_latency::total 16590.339166                       # average overall mshr miss latency
system.cpu.dcache.replacements                  47150                       # number of replacements
system.cpu.dcache.ReadReq_hits::.cpu.data      2461232                       # number of ReadReq hits
system.cpu.dcache.ReadReq_hits::total         2461232                       # number of ReadReq hits
system.cpu.dcache.ReadReq_misses::.cpu.data       294102                       # number of ReadReq misses
system.cpu.dcache.ReadReq_misses::total        294102                       # number of ReadReq misses
system.cpu.dcache.ReadReq_miss_latency::.cpu.data   4667126000                       # number of ReadReq miss cycles
system.cpu.dcache.ReadReq_miss_latency::total   4667126000                       # number of ReadReq miss cycles
system.cpu.dcache.ReadReq_accesses::.cpu.data      2755334                       # number of ReadReq accesses(hits+misses)
system.cpu.dcache.ReadReq_accesses::total      2755334                       # number of ReadReq accesses(hits+misses)
system.cpu.dcache.ReadReq_miss_rate::.cpu.data     0.106739                       # miss rate for ReadReq accesses
system.cpu.dcache.ReadReq_miss_rate::total     0.106739                       # miss rate for ReadReq accesses
system.cpu.dcache.ReadReq_avg_miss_latency::.cpu.data 15869.072635                       # average ReadReq miss latency
system.cpu.dcache.ReadReq_avg_miss_latency::total 15869.072635                       # average ReadReq miss latency
system.cpu.dcache.ReadReq_mshr_hits::.cpu.data       250154                       # number of ReadReq MSHR hits
system.cpu.dcache.ReadReq_mshr_hits::total       250154                       # number of ReadReq MSHR hits
system.cpu.dcache.ReadReq_mshr_misses::.cpu.data        43948                       # number of ReadReq MSHR misses
system.cpu.dcache.ReadReq_mshr_misses::total        43948                       # number of ReadReq MSHR misses
system.cpu.dcache.ReadReq_mshr_miss_latency::.cpu.data    738383500                       # number of ReadReq MSHR miss cycles
system.cpu.dcache.ReadReq_mshr_miss_latency::total    738383500                       # number of ReadReq MSHR miss cycles
system.cpu.dcache.ReadReq_mshr_miss_rate::.cpu.data     0.015950                       # mshr miss rate for ReadReq accesses
system.cpu.dcache.ReadReq_mshr_miss_rate::total     0.015950                       # mshr miss rate for ReadReq accesses
system.cpu.dcache.ReadReq_avg_mshr_miss_latency::.cpu.data 16801.299263                       # average ReadReq mshr miss latency
system.cpu.dcache.ReadReq_avg_mshr_miss_latency::total 16801.299263                       # average ReadReq mshr miss latency
system.cpu.dcache.WriteReq_hits::.cpu.data       128437                       # number of WriteReq hits
system.cpu.dcache.WriteReq_hits::total         128437                       # number of WriteReq hits
system.cpu.dcache.WriteReq_misses::.cpu.data         4227                       # number of WriteReq misses
system.cpu.dcache.WriteReq_misses::total         4227                       # number of WriteReq misses
system.cpu.dcache.WriteReq_miss_latency::.cpu.data     65074999                       # number of WriteReq miss cycles
system.cpu.dcache.WriteReq_miss_latency::total     65074999                       # number of WriteReq miss cycles
system.cpu.dcache.WriteReq_accesses::.cpu.data       132664                       # number of WriteReq accesses(hits+misses)
system.cpu.dcache.WriteReq_accesses::total       132664                       # number of WriteReq accesses(hits+misses)
system.cpu.dcache.WriteReq_miss_rate::.cpu.data     0.031862                       # miss rate for WriteReq accesses
system.cpu.dcache.WriteReq_miss_rate::total     0.031862                       # miss rate for WriteReq accesses
system.cpu.dcache.WriteReq_avg_miss_latency::.cpu.data 15395.079016                       # average WriteReq miss latency
system.cpu.dcache.WriteReq_avg_miss_latency::total 15395.079016                       # average WriteReq miss latency
system.cpu.dcache.WriteReq_mshr_hits::.cpu.data            1                       # number of WriteReq MSHR hits
system.cpu.dcache.WriteReq_mshr_hits::total            1                       # number of WriteReq MSHR hits
system.cpu.dcache.WriteReq_mshr_misses::.cpu.data         4226                       # number of WriteReq MSHR misses
system.cpu.dcache.WriteReq_mshr_misses::total         4226                       # number of WriteReq MSHR misses
system.cpu.dcache.WriteReq_mshr_miss_latency::.cpu.data     60839499                       # number of WriteReq MSHR miss cycles
system.cpu.dcache.WriteReq_mshr_miss_latency::total     60839499                       # number of WriteReq MSHR miss cycles
system.cpu.dcache.WriteReq_mshr_miss_rate::.cpu.data     0.031855                       # mshr miss rate for WriteReq accesses
system.cpu.dcache.WriteReq_mshr_miss_rate::total     0.031855                       # mshr miss rate for WriteReq accesses
system.cpu.dcache.WriteReq_avg_mshr_miss_latency::.cpu.data 14396.473971                       # average WriteReq mshr miss latency
system.cpu.dcache.WriteReq_avg_mshr_miss_latency::total 14396.473971                       # average WriteReq mshr miss latency
system.cpu.dcache.power_state.pwrStateResidencyTicks::UNDEFINED   1997945000                       # Cumulative time (in ticks) in various power states
system.cpu.dcache.tags.tagsinuse           975.853685                       # Cycle average of tags in use
system.cpu.dcache.tags.total_refs             2637843                       # Total number of references to valid blocks.
system.cpu.dcache.tags.sampled_refs             48174                       # Sample count of references to valid blocks.
system.cpu.dcache.tags.avg_refs             54.756570                       # Average number of references to valid blocks.
system.cpu.dcache.tags.warmup_cycle            176500                       # Cycle when the warmup percentage was hit.
system.cpu.dcache.tags.occ_blocks::.cpu.data   975.853685                       # Average occupied blocks per requestor
system.cpu.dcache.tags.occ_percent::.cpu.data     0.952982                       # Average percentage of cache occupancy
system.cpu.dcache.tags.occ_percent::total     0.952982                       # Average percentage of cache occupancy
system.cpu.dcache.tags.occ_task_id_blocks::1024         1024                       # Occupied blocks per task id
system.cpu.dcache.tags.age_task_id_blocks_1024::0          147                       # Occupied blocks per task id
system.cpu.dcache.tags.age_task_id_blocks_1024::1          112                       # Occupied blocks per task id
system.cpu.dcache.tags.age_task_id_blocks_1024::2          515                       # Occupied blocks per task id
system.cpu.dcache.tags.age_task_id_blocks_1024::3          250                       # Occupied blocks per task id
system.cpu.dcache.tags.occ_task_id_percent::1024            1                       # Percentage of cache occupancy per task id
system.cpu.dcache.tags.tag_accesses          23152158                       # Number of tag accesses
system.cpu.dcache.tags.data_accesses         23152158                       # Number of data accesses
system.cpu.dcache.tags.power_state.pwrStateResidencyTicks::UNDEFINED   1997945000                       # Cumulative time (in ticks) in various power states
system.cpu.decode.idleCycles                  1600014                       # Number of cycles decode is idle
system.cpu.decode.blockedCycles                286594                       # Number of cycles decode is blocked
system.cpu.decode.runCycles                   2061159                       # Number of cycles decode is running
system.cpu.decode.unblockCycles                  9508                       # Number of cycles decode is unblocking
system.cpu.decode.squashCycles                    899                       # Number of cycles decode is squashing
system.cpu.decode.branchResolved               263654                       # Number of times decode resolved a  branch
system.cpu.decode.branchMispred                   216                       # Number of times decode detected a branch misprediction
system.cpu.decode.decodedInsts               14496773                       # Number of instructions handled by decode
system.cpu.decode.squashedInsts                  1122                       # Number of squashed instructions handled by decode
system.cpu.dtb.rdAccesses                     2755610                       # TLB accesses on read requests
system.cpu.dtb.wrAccesses                      133175                       # TLB accesses on write requests
system.cpu.dtb.rdMisses                           128                       # TLB misses on read requests
system.cpu.dtb.wrMisses                            23                       # TLB misses on write requests
system.cpu.dtb.walker.power_state.pwrStateResidencyTicks::UNDEFINED   1997945000                       # Cumulative time (in ticks) in various power states
system.cpu.dtb_walker_cache.blocked_cycles::no_mshrs            0                       # number of cycles access was blocked
system.cpu.dtb_walker_cache.blocked_cycles::no_targets            0                       # number of cycles access was blocked
system.cpu.dtb_walker_cache.blocked::no_mshrs            0                       # number of cycles access was blocked
system.cpu.dtb_walker_cache.blocked::no_targets            0                       # number of cycles access was blocked
system.cpu.dtb_walker_cache.avg_blocked_cycles::no_mshrs          nan                       # average number of cycles each access was blocked
system.cpu.dtb_walker_cache.avg_blocked_cycles::no_targets          nan                       # average number of cycles each access was blocked
system.cpu.dtb_walker_cache.replacements            0                       # number of replacements
system.cpu.dtb_walker_cache.power_state.pwrStateResidencyTicks::UNDEFINED   1997945000                       # Cumulative time (in ticks) in various power states
system.cpu.dtb_walker_cache.tags.tagsinuse            0                       # Cycle average of tags in use
system.cpu.dtb_walker_cache.tags.total_refs            0                       # Total number of references to valid blocks.
system.cpu.dtb_walker_cache.tags.sampled_refs            0                       # Sample count of references to valid blocks.
system.cpu.dtb_walker_cache.tags.avg_refs          nan                       # Average number of references to valid blocks.
system.cpu.dtb_walker_cache.tags.warmup_cycle            0                       # Cycle when the warmup percentage was hit.
system.cpu.dtb_walker_cache.tags.tag_accesses            0                       # Number of tag accesses
system.cpu.dtb_walker_cache.tags.data_accesses            0                       # Number of data accesses
system.cpu.dtb_walker_cache.tags.power_state.pwrStateResidencyTicks::UNDEFINED   1997945000                       # Cumulative time (in ticks) in various power states
system.cpu.fetch.icacheStallCycles            1101086                       # Number of cycles fetch is stalled on an Icache miss
system.cpu.fetch.insts                        8119173                       # Number of instructions fetch has processed
system.cpu.fetch.branches                      299121                       # Number of branches that fetch encountered
system.cpu.fetch.predictedBranches             263820                       # Number of branches that fetch has predicted taken
system.cpu.fetch.cycles                       2854948                       # Number of cycles fetch has run and was not squashing or blocked
system.cpu.fetch.squashCycles                    2216                       # Number of cycles fetch has spent squashing
system.cpu.fetch.miscStallCycles                  145                       # Number of cycles fetch has spent waiting on interrupts,or bad addresses, or out of MSHRs
system.cpu.fetch.pendingTrapStallCycles           851                       # Number of stall cycles due to pending traps
system.cpu.fetch.pendingQuiesceStallCycles           20                       # Number of stall cycles due to pending quiesce instructions
system.cpu.fetch.icacheWaitRetryStallCycles           16                       # Number of stall cycles due to full MSHR
system.cpu.fetch.cacheLines                   1084993                       # Number of cache lines fetched
system.cpu.fetch.icacheSquashes                   327                       # Number of outstanding Icache misses that were squashed
system.cpu.fetch.nisnDist::samples            3958174                       # Number of instructions fetched each cycle (Total)
system.cpu.fetch.nisnDist::mean              3.663493                       # Number of instructions fetched each cycle (Total)
system.cpu.fetch.nisnDist::stdev             3.895677                       # Number of instructions fetched each cycle (Total)
system.cpu.fetch.nisnDist::underflows               0      0.00%      0.00% # Number of instructions fetched each cycle (Total)
system.cpu.fetch.nisnDist::0                  1883133     47.58%     47.58% # Number of instructions fetched each cycle (Total)
system.cpu.fetch.nisnDist::1                   264401      6.68%     54.26% # Number of instructions fetched each cycle (Total)
system.cpu.fetch.nisnDist::2                      712      0.02%     54.27% # Number of instructions fetched each cycle (Total)
system.cpu.fetch.nisnDist::3                    33837      0.85%     55.13% # Number of instructions fetched each cycle (Total)
system.cpu.fetch.nisnDist::4                      820      0.02%     55.15% # Number of instructions fetched each cycle (Total)
system.cpu.fetch.nisnDist::5                      911      0.02%     55.17% # Number of instructions fetched each cycle (Total)
system.cpu.fetch.nisnDist::6                    33348      0.84%     56.01% # Number of instructions fetched each cycle (Total)
system.cpu.fetch.nisnDist::7                     2612      0.07%     56.08% # Number of instructions fetched each cycle (Total)
system.cpu.fetch.nisnDist::8                  1738400     43.92%    100.00% # Number of instructions fetched each cycle (Total)
system.cpu.fetch.nisnDist::overflows                0      0.00%    100.00% # Number of instructions fetched each cycle (Total)
system.cpu.fetch.nisnDist::min_value                0                       # Number of instructions fetched each cycle (Total)
system.cpu.fetch.nisnDist::max_value                8                       # Number of instructions fetched each cycle (Total)
system.cpu.fetch.nisnDist::total              3958174                       # Number of instructions fetched each cycle (Total)
system.cpu.fetch.branchRate                  0.074857                       # Number of branch fetches per cycle
system.cpu.fetch.rate                        2.031880                       # Number of inst fetches per cycle
system.cpu.icache.demand_hits::.cpu.inst      1084396                       # number of demand (read+write) hits
system.cpu.icache.demand_hits::total          1084396                       # number of demand (read+write) hits
system.cpu.icache.overall_hits::.cpu.inst      1084396                       # number of overall hits
system.cpu.icache.overall_hits::total         1084396                       # number of overall hits
system.cpu.icache.demand_misses::.cpu.inst          597                       # number of demand (read+write) misses
system.cpu.icache.demand_misses::total            597                       # number of demand (read+write) misses
system.cpu.icache.overall_misses::.cpu.inst          597                       # number of overall misses
system.cpu.icache.overall_misses::total           597                       # number of overall misses
system.cpu.icache.demand_miss_latency::.cpu.inst     45387000                       # number of demand (read+write) miss cycles
system.cpu.icache.demand_miss_latency::total     45387000                       # number of demand (read+write) miss cycles
system.cpu.icache.overall_miss_latency::.cpu.inst     45387000                       # number of overall miss cycles
system.cpu.icache.overall_miss_latency::total     45387000                       # number of overall miss cycles
system.cpu.icache.demand_accesses::.cpu.inst      1084993                       # number of demand (read+write) accesses
system.cpu.icache.demand_accesses::total      1084993                       # number of demand (read+write) accesses
system.cpu.icache.overall_accesses::.cpu.inst      1084993                       # number of overall (read+write) accesses
system.cpu.icache.overall_accesses::total      1084993                       # number of overall (read+write) accesses
system.cpu.icache.demand_miss_rate::.cpu.inst     0.000550                       # miss rate for demand accesses
system.cpu.icache.demand_miss_rate::total     0.000550                       # miss rate for demand accesses
system.cpu.icache.overall_miss_rate::.cpu.inst     0.000550                       # miss rate for overall accesses
system.cpu.icache.overall_miss_rate::total     0.000550                       # miss rate for overall accesses
system.cpu.icache.demand_avg_miss_latency::.cpu.inst 76025.125628                       # average overall miss latency
system.cpu.icache.demand_avg_miss_latency::total 76025.125628                       # average overall miss latency
system.cpu.icache.overall_avg_miss_latency::.cpu.inst 76025.125628                       # average overall miss latency
system.cpu.icache.overall_avg_miss_latency::total 76025.125628                       # average overall miss latency
system.cpu.icache.blocked_cycles::no_mshrs           41                       # number of cycles access was blocked
system.cpu.icache.blocked_cycles::no_targets            0                       # number of cycles access was blocked
system.cpu.icache.blocked::no_mshrs                 2                       # number of cycles access was blocked
system.cpu.icache.blocked::no_targets               0                       # number of cycles access was blocked
system.cpu.icache.avg_blocked_cycles::no_mshrs    20.500000                       # average number of cycles each access was blocked
system.cpu.icache.avg_blocked_cycles::no_targets          nan                       # average number of cycles each access was blocked
system.cpu.icache.writebacks::.writebacks           20                       # number of writebacks
system.cpu.icache.writebacks::total                20                       # number of writebacks
system.cpu.icache.demand_mshr_hits::.cpu.inst          140                       # number of demand (read+write) MSHR hits
system.cpu.icache.demand_mshr_hits::total          140                       # number of demand (read+write) MSHR hits
system.cpu.icache.overall_mshr_hits::.cpu.inst          140                       # number of overall MSHR hits
system.cpu.icache.overall_mshr_hits::total          140                       # number of overall MSHR hits
system.cpu.icache.demand_mshr_misses::.cpu.inst          457                       # number of demand (read+write) MSHR misses
system.cpu.icache.demand_mshr_misses::total          457                       # number of demand (read+write) MSHR misses
system.cpu.icache.overall_mshr_misses::.cpu.inst          457                       # number of overall MSHR misses
system.cpu.icache.overall_mshr_misses::total          457                       # number of overall MSHR misses
system.cpu.icache.demand_mshr_miss_latency::.cpu.inst     36852500                       # number of demand (read+write) MSHR miss cycles
system.cpu.icache.demand_mshr_miss_latency::total     36852500                       # number of demand (read+write) MSHR miss cycles
system.cpu.icache.overall_mshr_miss_latency::.cpu.inst     36852500                       # number of overall MSHR miss cycles
system.cpu.icache.overall_mshr_miss_latency::total     36852500                       # number of overall MSHR miss cycles
system.cpu.icache.demand_mshr_miss_rate::.cpu.inst     0.000421                       # mshr miss rate for demand accesses
system.cpu.icache.demand_mshr_miss_rate::total     0.000421                       # mshr miss rate for demand accesses
system.cpu.icache.overall_mshr_miss_rate::.cpu.inst     0.000421                       # mshr miss rate for overall accesses
system.cpu.icache.overall_mshr_miss_rate::total     0.000421                       # mshr miss rate for overall accesses
system.cpu.icache.demand_avg_mshr_miss_latency::.cpu.inst 80640.043764                       # average overall mshr miss latency
system.cpu.icache.demand_avg_mshr_miss_latency::total 80640.043764                       # average overall mshr miss latency
system.cpu.icache.overall_avg_mshr_miss_latency::.cpu.inst 80640.043764                       # average overall mshr miss latency
system.cpu.icache.overall_avg_mshr_miss_latency::total 80640.043764                       # average overall mshr miss latency
system.cpu.icache.replacements                     20                       # number of replacements
system.cpu.icache.ReadReq_hits::.cpu.inst      1084396                       # number of ReadReq hits
system.cpu.icache.ReadReq_hits::total         1084396                       # number of ReadReq hits
system.cpu.icache.ReadReq_misses::.cpu.inst          597                       # number of ReadReq misses
system.cpu.icache.ReadReq_misses::total           597                       # number of ReadReq misses
system.cpu.icache.ReadReq_miss_latency::.cpu.inst     45387000                       # number of ReadReq miss cycles
system.cpu.icache.ReadReq_miss_latency::total     45387000                       # number of ReadReq miss cycles
system.cpu.icache.ReadReq_accesses::.cpu.inst      1084993                       # number of ReadReq accesses(hits+misses)
system.cpu.icache.ReadReq_accesses::total      1084993                       # number of ReadReq accesses(hits+misses)
system.cpu.icache.ReadReq_miss_rate::.cpu.inst     0.000550                       # miss rate for ReadReq accesses
system.cpu.icache.ReadReq_miss_rate::total     0.000550                       # miss rate for ReadReq accesses
system.cpu.icache.ReadReq_avg_miss_latency::.cpu.inst 76025.125628                       # average ReadReq miss latency
system.cpu.icache.ReadReq_avg_miss_latency::total 76025.125628                       # average ReadReq miss latency
system.cpu.icache.ReadReq_mshr_hits::.cpu.inst          140                       # number of ReadReq MSHR hits
system.cpu.icache.ReadReq_mshr_hits::total          140                       # number of ReadReq MSHR hits
system.cpu.icache.ReadReq_mshr_misses::.cpu.inst          457                       # number of ReadReq MSHR misses
system.cpu.icache.ReadReq_mshr_misses::total          457                       # number of ReadReq MSHR misses
system.cpu.icache.ReadReq_mshr_miss_latency::.cpu.inst     36852500                       # number of ReadReq MSHR miss cycles
system.cpu.icache.ReadReq_mshr_miss_latency::total     36852500                       # number of ReadReq MSHR miss cycles
system.cpu.icache.ReadReq_mshr_miss_rate::.cpu.inst     0.000421                       # mshr miss rate for ReadReq accesses
system.cpu.icache.ReadReq_mshr_miss_rate::total     0.000421                       # mshr miss rate for ReadReq accesses
system.cpu.icache.ReadReq_avg_mshr_miss_latency::.cpu.inst 80640.043764                       # average ReadReq mshr miss latency
system.cpu.icache.ReadReq_avg_mshr_miss_latency::total 80640.043764                       # average ReadReq mshr miss latency
system.cpu.icache.power_state.pwrStateResidencyTicks::UNDEFINED   1997945000                       # Cumulative time (in ticks) in various power states
system.cpu.icache.tags.tagsinuse           393.974091                       # Cycle average of tags in use
system.cpu.icache.tags.total_refs             1084853                       # Total number of references to valid blocks.
system.cpu.icache.tags.sampled_refs               457                       # Sample count of references to valid blocks.
system.cpu.icache.tags.avg_refs           2373.857768                       # Average number of references to valid blocks.
system.cpu.icache.tags.warmup_cycle             87500                       # Cycle when the warmup percentage was hit.
system.cpu.icache.tags.occ_blocks::.cpu.inst   393.974091                       # Average occupied blocks per requestor
system.cpu.icache.tags.occ_percent::.cpu.inst     0.384740                       # Average percentage of cache occupancy
system.cpu.icache.tags.occ_percent::total     0.384740                       # Average percentage of cache occupancy
system.cpu.icache.tags.occ_task_id_blocks::1024          437                       # Occupied blocks per task id
system.cpu.icache.tags.age_task_id_blocks_1024::0           42                       # Occupied blocks per task id
system.cpu.icache.tags.age_task_id_blocks_1024::2            1                       # Occupied blocks per task id
system.cpu.icache.tags.age_task_id_blocks_1024::3          394                       # Occupied blocks per task id
system.cpu.icache.tags.occ_task_id_percent::1024     0.426758                       # Percentage of cache occupancy per task id
system.cpu.icache.tags.tag_accesses           2170443                       # Number of tag accesses
system.cpu.icache.tags.data_accesses          2170443                       # Number of data accesses
system.cpu.icache.tags.power_state.pwrStateResidencyTicks::UNDEFINED   1997945000                       # Cumulative time (in ticks) in various power states
system.cpu.interrupts.clk_domain.clock           8000                       # Clock period in ticks
system.cpu.itb.rdAccesses                           0                       # TLB accesses on read requests
system.cpu.itb.wrAccesses                     1085142                       # TLB accesses on write requests
system.cpu.itb.rdMisses                             0                       # TLB misses on read requests
system.cpu.itb.wrMisses                           192                       # TLB misses on write requests
system.cpu.itb.walker.power_state.pwrStateResidencyTicks::UNDEFINED   1997945000                       # Cumulative time (in ticks) in various power states
system.cpu.itb_walker_cache.blocked_cycles::no_mshrs            0                       # number of cycles access was blocked
system.cpu.itb_walker_cache.blocked_cycles::no_targets            0                       # number of cycles access was blocked
system.cpu.itb_walker_cache.blocked::no_mshrs            0                       # number of cycles access was blocked
system.cpu.itb_walker_cache.blocked::no_targets            0                       # number of cycles access was blocked
system.cpu.itb_walker_cache.avg_blocked_cycles::no_mshrs          nan                       # average number of cycles each access was blocked
system.cpu.itb_walker_cache.avg_blocked_cycles::no_targets          nan                       # average number of cycles each access was blocked
system.cpu.itb_walker_cache.replacements            0                       # number of replacements
system.cpu.itb_walker_cache.power_state.pwrStateResidencyTicks::UNDEFINED   1997945000                       # Cumulative time (in ticks) in various power states
system.cpu.itb_walker_cache.tags.tagsinuse            0                       # Cycle average of tags in use
system.cpu.itb_walker_cache.tags.total_refs            0                       # Total number of references to valid blocks.
system.cpu.itb_walker_cache.tags.sampled_refs            0                       # Sample count of references to valid blocks.
system.cpu.itb_walker_cache.tags.avg_refs          nan                       # Average number of references to valid blocks.
system.cpu.itb_walker_cache.tags.warmup_cycle            0                       # Cycle when the warmup percentage was hit.
system.cpu.itb_walker_cache.tags.tag_accesses            0                       # Number of tag accesses
system.cpu.itb_walker_cache.tags.data_accesses            0                       # Number of data accesses
system.cpu.itb_walker_cache.tags.power_state.pwrStateResidencyTicks::UNDEFINED   1997945000                       # Cumulative time (in ticks) in various power states
system.cpu.lsq0.forwLoads                         205                       # Number of loads that had data forwarded from stores
system.cpu.lsq0.squashedLoads                    2622                       # Number of loads squashed
system.cpu.lsq0.ignoredResponses                    2                       # Number of memory responses ignored because the instruction is squashed
system.cpu.lsq0.memOrderViolation                   9                       # Number of memory ordering violations
system.cpu.lsq0.squashedStores                    935                       # Number of stores squashed
system.cpu.lsq0.rescheduledLoads                    0                       # Number of loads that were rescheduled
system.cpu.lsq0.blockedByCache                   1695                       # Number of times an access to memory failed due to the cache being blocked
system.cpu.power_state.pwrStateResidencyTicks::ON   1997945000                       # Cumulative time (in ticks) in various power states
system.cpu.rename.squashCycles                    899                       # Number of cycles rename is squashing
system.cpu.rename.idleCycles                  1605043                       # Number of cycles rename is idle
system.cpu.rename.blockCycles                   24929                       # Number of cycles rename is blocking
system.cpu.rename.serializeStallCycles             35                       # count of cycles rename stalledfor serializing inst
system.cpu.rename.runCycles                   2065335                       # Number of cycles rename is running
system.cpu.rename.unblockCycles                261933                       # Number of cycles rename is unblocking
system.cpu.rename.renamedInsts               14494628                       # Number of instructions processed by rename
system.cpu.rename.ROBFullEvents                 15269                       # Number of times rename has blocked due to ROB full
system.cpu.rename.IQFullEvents                 101829                       # Number of times rename has blocked due to IQ full
system.cpu.rename.LQFullEvents                 240533                       # Number of times rename has blocked due to LQ full
system.cpu.rename.SQFullEvents                   6526                       # Number of times rename has blocked due to SQ full
system.cpu.rename.renamedOperands            15810085                       # Number of destination operands rename has renamed
system.cpu.rename.lookups                    26337395                       # Number of register rename lookups that rename has made
system.cpu.rename.intLookups                  8115994                       # Number of integer rename lookups
system.cpu.rename.fpLookups                  13371193                       # Number of floating rename lookups
system.cpu.rename.committedMaps              15785244                       # Number of HB maps that are committed
system.cpu.rename.undoneMaps                    24827                       # Number of HB maps that are undone due to squashing
system.cpu.rename.serializing                       4                       # count of serializing insts renamed
system.cpu.rename.tempSerializing                   4                       # count of temporary serializing insts renamed
system.cpu.rename.skidInsts                     50569                       # count of insts added to the skid buffer
system.cpu.rob.reads                         17337597                       # The number of ROB reads
system.cpu.rob.writes                        28977705                       # The number of ROB writes
system.cpu.thread_0.numInsts                  8104173                       # Number of Instructions committed
system.cpu.thread_0.numOps                   14470629                       # Number of Ops committed
system.cpu.thread_0.numMemRefs                      0                       # Number of Memory References
system.cpu_clk_domain.clock                       500                       # Clock period in ticks
system.cpu_voltage_domain.voltage                   1                       # Voltage in Volts
system.l2.demand_hits::.cpu.inst                    3                       # number of demand (read+write) hits
system.l2.demand_hits::.cpu.data                44874                       # number of demand (read+write) hits
system.l2.demand_hits::total                    44877                       # number of demand (read+write) hits
system.l2.overall_hits::.cpu.inst                   3                       # number of overall hits
system.l2.overall_hits::.cpu.data               44874                       # number of overall hits
system.l2.overall_hits::total                   44877                       # number of overall hits
system.l2.demand_misses::.cpu.inst                454                       # number of demand (read+write) misses
system.l2.demand_misses::.cpu.data               3300                       # number of demand (read+write) misses
system.l2.demand_misses::total                   3754                       # number of demand (read+write) misses
system.l2.overall_misses::.cpu.inst               454                       # number of overall misses
system.l2.overall_misses::.cpu.data              3300                       # number of overall misses
system.l2.overall_misses::total                  3754                       # number of overall misses
system.l2.demand_miss_latency::.cpu.inst     36130500                       # number of demand (read+write) miss cycles
system.l2.demand_miss_latency::.cpu.data    252249000                       # number of demand (read+write) miss cycles
system.l2.demand_miss_latency::total        288379500                       # number of demand (read+write) miss cycles
system.l2.overall_miss_latency::.cpu.inst     36130500                       # number of overall miss cycles
system.l2.overall_miss_latency::.cpu.data    252249000                       # number of overall miss cycles
system.l2.overall_miss_latency::total       288379500                       # number of overall miss cycles
system.l2.demand_accesses::.cpu.inst              457                       # number of demand (read+write) accesses
system.l2.demand_accesses::.cpu.data            48174                       # number of demand (read+write) accesses
system.l2.demand_accesses::total                48631                       # number of demand (read+write) accesses
system.l2.overall_accesses::.cpu.inst             457                       # number of overall (read+write) accesses
system.l2.overall_accesses::.cpu.data           48174                       # number of overall (read+write) accesses
system.l2.overall_accesses::total               48631                       # number of overall (read+write) accesses
system.l2.demand_miss_rate::.cpu.inst        0.993435                       # miss rate for demand accesses
system.l2.demand_miss_rate::.cpu.data        0.068502                       # miss rate for demand accesses
system.l2.demand_miss_rate::total            0.077194                       # miss rate for demand accesses
system.l2.overall_miss_rate::.cpu.inst       0.993435                       # miss rate for overall accesses
system.l2.overall_miss_rate::.cpu.data       0.068502                       # miss rate for overall accesses
system.l2.overall_miss_rate::total           0.077194                       # miss rate for overall accesses
system.l2.demand_avg_miss_latency::.cpu.inst 79582.599119                       # average overall miss latency
system.l2.demand_avg_miss_latency::.cpu.data 76439.090909                       # average overall miss latency
system.l2.demand_avg_miss_latency::total 76819.259457                       # average overall miss latency
system.l2.overall_avg_miss_latency::.cpu.inst 79582.599119                       # average overall miss latency
system.l2.overall_avg_miss_latency::.cpu.data 76439.090909                       # average overall miss latency
system.l2.overall_avg_miss_latency::total 76819.259457                       # average overall miss latency
system.l2.blocked_cycles::no_mshrs                  0                       # number of cycles access was blocked
system.l2.blocked_cycles::no_targets                0                       # number of cycles access was blocked
[...]
system.mem_ctrls.dram.bw_total::.cpu.data    105708616                       # Total bandwidth to/from this memory (bytes/s)
system.mem_ctrls.dram.bw_total::total       120251558                       # Total bandwidth to/from this memory (bytes/s)
system.mem_ctrls.dram.readBursts                 3754                       # Number of DRAM read bursts
system.mem_ctrls.dram.writeBursts                   0                       # Number of DRAM write bursts
system.mem_ctrls.dram.perBankRdBursts::0          224                       # Per bank write bursts
system.mem_ctrls.dram.perBankRdBursts::1          301                       # Per bank write bursts
system.mem_ctrls.dram.perBankRdBursts::2          264                       # Per bank write bursts
system.mem_ctrls.dram.perBankRdBursts::3          263                       # Per bank write bursts
system.mem_ctrls.dram.perBankRdBursts::4          263                       # Per bank write bursts
system.mem_ctrls.dram.perBankRdBursts::5          266                       # Per bank write bursts
system.mem_ctrls.dram.perBankRdBursts::6          331                       # Per bank write bursts
system.mem_ctrls.dram.perBankRdBursts::7          284                       # Per bank write bursts
system.mem_ctrls.dram.perBankRdBursts::8          281                       # Per bank write bursts
system.mem_ctrls.dram.perBankRdBursts::9          182                       # Per bank write bursts
system.mem_ctrls.dram.perBankRdBursts::10          146                       # Per bank write bursts
system.mem_ctrls.dram.perBankRdBursts::11          201                       # Per bank write bursts
system.mem_ctrls.dram.perBankRdBursts::12          184                       # Per bank write bursts
system.mem_ctrls.dram.perBankRdBursts::13          140                       # Per bank write bursts
system.mem_ctrls.dram.perBankRdBursts::14          187                       # Per bank write bursts
system.mem_ctrls.dram.perBankRdBursts::15          237                       # Per bank write bursts
system.mem_ctrls.dram.perBankWrBursts::0            0                       # Per bank write bursts
system.mem_ctrls.dram.perBankWrBursts::1            0                       # Per bank write bursts
system.mem_ctrls.dram.perBankWrBursts::2            0                       # Per bank write bursts
system.mem_ctrls.dram.perBankWrBursts::3            0                       # Per bank write bursts
system.mem_ctrls.dram.perBankWrBursts::4            0                       # Per bank write bursts
system.mem_ctrls.dram.perBankWrBursts::5            0                       # Per bank write bursts
system.mem_ctrls.dram.perBankWrBursts::6            0                       # Per bank write bursts
system.mem_ctrls.dram.perBankWrBursts::7            0                       # Per bank write bursts
system.mem_ctrls.dram.perBankWrBursts::8            0                       # Per bank write bursts
system.mem_ctrls.dram.perBankWrBursts::9            0                       # Per bank write bursts
system.mem_ctrls.dram.perBankWrBursts::10            0                       # Per bank write bursts
system.mem_ctrls.dram.perBankWrBursts::11            0                       # Per bank write bursts
system.mem_ctrls.dram.perBankWrBursts::12            0                       # Per bank write bursts
system.mem_ctrls.dram.perBankWrBursts::13            0                       # Per bank write bursts
system.mem_ctrls.dram.perBankWrBursts::14            0                       # Per bank write bursts
system.mem_ctrls.dram.perBankWrBursts::15            0                       # Per bank write bursts
system.mem_ctrls.dram.totQLat                26736750                       # Total ticks spent queuing
system.mem_ctrls.dram.totBusLat              18770000                       # Total ticks spent in databus transfers
system.mem_ctrls.dram.totMemAccLat           97124250                       # Total ticks spent from burst creation until serviced by the DRAM
system.mem_ctrls.dram.avgQLat                 7122.20                       # Average queueing delay per DRAM burst
system.mem_ctrls.dram.avgBusLat               5000.00                       # Average bus latency per DRAM burst
system.mem_ctrls.dram.avgMemAccLat           25872.20                       # Average memory access latency per DRAM burst
system.mem_ctrls.dram.readRowHits                3218                       # Number of row buffer hits during reads
system.mem_ctrls.dram.writeRowHits                  0                       # Number of row buffer hits during writes
system.mem_ctrls.dram.readRowHitRate            85.72                       # Row buffer hit rate for reads
system.mem_ctrls.dram.writeRowHitRate             nan                       # Row buffer hit rate for writes
system.mem_ctrls.dram.bytesPerActivate::samples          525                       # Bytes accessed per row activation
system.mem_ctrls.dram.bytesPerActivate::mean   452.998095                       # Bytes accessed per row activation
system.mem_ctrls.dram.bytesPerActivate::gmean   291.909010                       # Bytes accessed per row activation
system.mem_ctrls.dram.bytesPerActivate::stdev   359.784003                       # Bytes accessed per row activation
system.mem_ctrls.dram.bytesPerActivate::0-127          114     21.71%     21.71% # Bytes accessed per row activation
system.mem_ctrls.dram.bytesPerActivate::128-255           92     17.52%     39.24% # Bytes accessed per row activation
system.mem_ctrls.dram.bytesPerActivate::256-383           26      4.95%     44.19% # Bytes accessed per row activation
system.mem_ctrls.dram.bytesPerActivate::384-511           74     14.10%     58.29% # Bytes accessed per row activation
system.mem_ctrls.dram.bytesPerActivate::512-639           70     13.33%     71.62% # Bytes accessed per row activation
system.mem_ctrls.dram.bytesPerActivate::640-767           12      2.29%     73.90% # Bytes accessed per row activation
system.mem_ctrls.dram.bytesPerActivate::768-895           11      2.10%     76.00% # Bytes accessed per row activation
system.mem_ctrls.dram.bytesPerActivate::896-1023           27      5.14%     81.14% # Bytes accessed per row activation
system.mem_ctrls.dram.bytesPerActivate::1024-1151           99     18.86%    100.00% # Bytes accessed per row activation
system.mem_ctrls.dram.bytesPerActivate::total          525                       # Bytes accessed per row activation
system.mem_ctrls.dram.bytesRead                240256                       # Total number of bytes read from DRAM
system.mem_ctrls.dram.bytesWritten                  0                       # Total number of bytes written to DRAM
system.mem_ctrls.dram.avgRdBW              120.251558                       # Average DRAM read bandwidth in MiBytes/s
system.mem_ctrls.dram.avgWrBW                       0                       # Average DRAM write bandwidth in MiBytes/s
system.mem_ctrls.dram.peakBW                 12800.00                       # Theoretical peak bandwidth in MiByte/s
system.mem_ctrls.dram.busUtil                    0.94                       # Data bus utilization in percentage
system.mem_ctrls.dram.busUtilRead                0.94                       # Data bus utilization in percentage for reads
system.mem_ctrls.dram.busUtilWrite               0.00                       # Data bus utilization in percentage for writes
system.mem_ctrls.dram.pageHitRate               85.72                       # Row buffer hit rate, read and write combined
system.mem_ctrls.dram.power_state.pwrStateResidencyTicks::UNDEFINED   1997945000                       # Cumulative time (in ticks) in various power states
system.mem_ctrls.dram.rank0.actEnergy         2341920                       # Energy for activate commands per rank (pJ)
system.mem_ctrls.dram.rank0.preEnergy         1221990                       # Energy for precharge commands per rank (pJ)
system.mem_ctrls.dram.rank0.readEnergy       15679440                       # Energy for read commands per rank (pJ)
system.mem_ctrls.dram.rank0.writeEnergy             0                       # Energy for write commands per rank (pJ)
system.mem_ctrls.dram.rank0.refreshEnergy 157347840.000000                       # Energy for refresh commands per rank (pJ)
system.mem_ctrls.dram.rank0.actBackEnergy    302614140                       # Energy for active background per rank (pJ)
system.mem_ctrls.dram.rank0.preBackEnergy    512377920                       # Energy for precharge background per rank (pJ)
system.mem_ctrls.dram.rank0.actPowerDownEnergy            0                       # Energy for active power-down per rank (pJ)
system.mem_ctrls.dram.rank0.prePowerDownEnergy            0                       # Energy for precharge power-down per rank (pJ)
system.mem_ctrls.dram.rank0.selfRefreshEnergy            0                       # Energy for self refresh per rank (pJ)
system.mem_ctrls.dram.rank0.totalEnergy     991583250                       # Total energy per rank (pJ)
system.mem_ctrls.dram.rank0.averagePower   496.301575                       # Core power per rank (mW)
system.mem_ctrls.dram.rank0.totalIdleTime            0                       # Total Idle time Per DRAM Rank
system.mem_ctrls.dram.rank0.pwrStateTime::IDLE   1328883500                       # Time in different power states
system.mem_ctrls.dram.rank0.pwrStateTime::REF     66560000                       # Time in different power states
system.mem_ctrls.dram.rank0.pwrStateTime::SREF            0                       # Time in different power states
system.mem_ctrls.dram.rank0.pwrStateTime::PRE_PDN            0                       # Time in different power states
system.mem_ctrls.dram.rank0.pwrStateTime::ACT    602501500                       # Time in different power states
system.mem_ctrls.dram.rank0.pwrStateTime::ACT_PDN            0                       # Time in different power states
system.mem_ctrls.dram.rank1.actEnergy         1485120                       # Energy for activate commands per rank (pJ)
system.mem_ctrls.dram.rank1.preEnergy          770385                       # Energy for precharge commands per rank (pJ)
system.mem_ctrls.dram.rank1.readEnergy       11124120                       # Energy for read commands per rank (pJ)
system.mem_ctrls.dram.rank1.writeEnergy             0                       # Energy for write commands per rank (pJ)
system.mem_ctrls.dram.rank1.refreshEnergy 157347840.000000                       # Energy for refresh commands per rank (pJ)
system.mem_ctrls.dram.rank1.actBackEnergy    154919160                       # Energy for active background per rank (pJ)
system.mem_ctrls.dram.rank1.preBackEnergy    636752640                       # Energy for precharge background per rank (pJ)
system.mem_ctrls.dram.rank1.actPowerDownEnergy            0                       # Energy for active power-down per rank (pJ)
system.mem_ctrls.dram.rank1.prePowerDownEnergy            0                       # Energy for precharge power-down per rank (pJ)
system.mem_ctrls.dram.rank1.selfRefreshEnergy            0                       # Energy for self refresh per rank (pJ)
system.mem_ctrls.dram.rank1.totalEnergy     962399265                       # Total energy per rank (pJ)
system.mem_ctrls.dram.rank1.averagePower   481.694574                       # Core power per rank (mW)
system.mem_ctrls.dram.rank1.totalIdleTime            0                       # Total Idle time Per DRAM Rank
system.mem_ctrls.dram.rank1.pwrStateTime::IDLE   1653861250                       # Time in different power states
system.mem_ctrls.dram.rank1.pwrStateTime::REF     66560000                       # Time in different power states
system.mem_ctrls.dram.rank1.pwrStateTime::SREF            0                       # Time in different power states
system.mem_ctrls.dram.rank1.pwrStateTime::PRE_PDN            0                       # Time in different power states
system.mem_ctrls.dram.rank1.pwrStateTime::ACT    277523750                       # Time in different power states
system.mem_ctrls.dram.rank1.pwrStateTime::ACT_PDN            0                       # Time in different power states
system.mem_ctrls.power_state.pwrStateResidencyTicks::UNDEFINED   1997945000                       # Cumulative time (in ticks) in various power states
system.membus.trans_dist::ReadResp               3647                       # Transaction distribution
system.membus.trans_dist::CleanEvict               15                       # Transaction distribution
system.membus.trans_dist::ReadExReq               107                       # Transaction distribution
system.membus.trans_dist::ReadExResp              107                       # Transaction distribution
system.membus.trans_dist::ReadSharedReq          3647                       # Transaction distribution
system.membus.pkt_count_system.l2.mem_side_port::system.mem_ctrls.port         7523                       # Packet count per connected requestor and responder (bytes)
system.membus.pkt_count_system.l2.mem_side_port::total         7523                       # Packet count per connected requestor and responder (bytes)
system.membus.pkt_count::total                   7523                       # Packet count per connected requestor and responder (bytes)
system.membus.pkt_size_system.l2.mem_side_port::system.mem_ctrls.port       240256                       # Cumulative packet size per connected requestor and responder (bytes)
system.membus.pkt_size_system.l2.mem_side_port::total       240256                       # Cumulative packet size per connected requestor and responder (bytes)
system.membus.pkt_size::total                  240256                       # Cumulative packet size per connected requestor and responder (bytes)
system.membus.snoops                                0                       # Total snoops (count)
system.membus.snoopTraffic                          0                       # Total snoop traffic (bytes)
system.membus.snoop_fanout::samples              3754                       # Request fanout histogram
system.membus.snoop_fanout::mean                    0                       # Request fanout histogram
system.membus.snoop_fanout::stdev                   0                       # Request fanout histogram
system.membus.snoop_fanout::underflows              0      0.00%      0.00% # Request fanout histogram
system.membus.snoop_fanout::0                    3754    100.00%    100.00% # Request fanout histogram
system.membus.snoop_fanout::1                       0      0.00%    100.00% # Request fanout histogram
system.membus.snoop_fanout::overflows               0      0.00%    100.00% # Request fanout histogram
system.membus.snoop_fanout::min_value               0                       # Request fanout histogram
system.membus.snoop_fanout::max_value               0                       # Request fanout histogram
system.membus.snoop_fanout::total                3754                       # Request fanout histogram
system.membus.power_state.pwrStateResidencyTicks::UNDEFINED   1997945000                       # Cumulative time (in ticks) in various power states
system.membus.reqLayer2.occupancy             4237500                       # Layer occupancy (ticks)
system.membus.reqLayer2.utilization               0.2                       # Layer utilization (%)
system.membus.respLayer1.occupancy           19792500                       # Layer occupancy (ticks)
system.membus.respLayer1.utilization              1.0                       # Layer utilization (%)
system.tol2bus.trans_dist::ReadResp             44405                       # Transaction distribution
system.tol2bus.trans_dist::WritebackDirty        36629                       # Transaction distribution
system.tol2bus.trans_dist::WritebackClean           20                       # Transaction distribution
system.tol2bus.trans_dist::CleanEvict           10863                       # Transaction distribution
system.tol2bus.trans_dist::ReadExReq             4226                       # Transaction distribution
system.tol2bus.trans_dist::ReadExResp            4226                       # Transaction distribution
system.tol2bus.trans_dist::ReadCleanReq           457                       # Transaction distribution
system.tol2bus.trans_dist::ReadSharedReq        43948                       # Transaction distribution
system.tol2bus.pkt_count_system.cpu.icache.mem_side_port::system.l2.cpu_side_port          934                       # Packet count per connected requestor and responder (bytes)
system.tol2bus.pkt_count_system.cpu.dcache.mem_side_port::system.l2.cpu_side_port       143498                       # Packet count per connected requestor and responder (bytes)
system.tol2bus.pkt_count::total                144432                       # Packet count per connected requestor and responder (bytes)
system.tol2bus.pkt_size_system.cpu.icache.mem_side_port::system.l2.cpu_side_port        30528                       # Cumulative packet size per connected requestor and responder (bytes)
system.tol2bus.pkt_size_system.cpu.dcache.mem_side_port::system.l2.cpu_side_port      5427392                       # Cumulative packet size per connected requestor and responder (bytes)
system.tol2bus.pkt_size::total                5457920                       # Cumulative packet size per connected requestor and responder (bytes)
system.tol2bus.snoops                             342                       # Total snoops (count)
system.tol2bus.snoopTraffic                         0                       # Total snoop traffic (bytes)
system.tol2bus.snoop_fanout::samples            48973                       # Request fanout histogram
system.tol2bus.snoop_fanout::mean            0.006943                       # Request fanout histogram
system.tol2bus.snoop_fanout::stdev           0.083033                       # Request fanout histogram
system.tol2bus.snoop_fanout::underflows             0      0.00%      0.00% # Request fanout histogram
system.tol2bus.snoop_fanout::0                  48633     99.31%     99.31% # Request fanout histogram
system.tol2bus.snoop_fanout::1                    340      0.69%    100.00% # Request fanout histogram
system.tol2bus.snoop_fanout::2                      0      0.00%    100.00% # Request fanout histogram
system.tol2bus.snoop_fanout::3                      0      0.00%    100.00% # Request fanout histogram
system.tol2bus.snoop_fanout::4                      0      0.00%    100.00% # Request fanout histogram
system.tol2bus.snoop_fanout::overflows              0      0.00%    100.00% # Request fanout histogram
system.tol2bus.snoop_fanout::min_value              0                       # Request fanout histogram
system.tol2bus.snoop_fanout::max_value              1                       # Request fanout histogram
system.tol2bus.snoop_fanout::total              48973                       # Request fanout histogram
system.tol2bus.power_state.pwrStateResidencyTicks::UNDEFINED   1997945000                       # Cumulative time (in ticks) in various power states
system.tol2bus.reqLayer0.occupancy           84549500                       # Layer occupancy (ticks)
system.tol2bus.reqLayer0.utilization              4.2                       # Layer utilization (%)
system.tol2bus.respLayer0.occupancy            685500                       # Layer occupancy (ticks)
system.tol2bus.respLayer0.utilization             0.0                       # Layer utilization (%)
system.tol2bus.respLayer1.occupancy          72261000                       # Layer occupancy (ticks)
system.tol2bus.respLayer1.utilization             3.6                       # Layer utilization (%)
system.voltage_domain.voltage                       1                       # Voltage in Volts

---------- End Simulation Statistics   ----------
