
---------- Begin Simulation Statistics ----------
final_tick                                10248631500                       # Number of ticks from beginning of simulation (restored from checkpoints and never reset)
host_inst_rate                                1162023                       # Simulator instruction rate (inst/s)
host_mem_usage                                 638220                       # Number of bytes of host memory used
host_op_rate                                  2068524                       # Simulator op (including micro ops) rate (op/s)
host_seconds                                     8.60                       # Real time elapsed on the host
host_tick_rate                             1191373816                       # Simulator tick rate (ticks/s)
sim_freq                                 1000000000000                       # Frequency of simulated ticks
sim_insts                                     9995921                       # Number of instructions simulated
sim_ops                                      17794161                       # Number of ops (including micro ops) simulated
sim_seconds                                  0.010249                       # Number of seconds simulated
sim_ticks                                 10248631500                       # Number of ticks simulated
system.cpu.Branches                           2264230                       # Number of branches fetched
system.cpu.committedInsts                     9995921                       # Number of instructions committed
system.cpu.committedOps                      17794161                       # Number of ops (including micro ops) committed
system.cpu.idle_fraction                     0.000000                       # Percentage of idle cycles
system.cpu.not_idle_fraction                 1.000000                       # Percentage of non-idle cycles
system.cpu.numCycles                         20497274                       # number of cpu cycles simulated
system.cpu.numWorkItemsCompleted                    0                       # number of work items this cpu completed
system.cpu.numWorkItemsStarted                      0                       # number of work items this cpu started
system.cpu.num_busy_cycles               20497273.998000                       # Number of busy cycles
system.cpu.num_cc_register_reads             11321341                       # number of times the CC registers were read
system.cpu.num_cc_register_writes             9054032                       # number of times the CC registers were written
system.cpu.num_conditional_control_insts      2263788                       # number of instructions that are conditional controls
system.cpu.num_fp_alu_accesses                2001127                       # Number of float alu accesses
system.cpu.num_fp_insts                       2001127                       # number of float instructions
system.cpu.num_fp_register_reads              4376293                       # number of times the floating registers were read
system.cpu.num_fp_register_writes             2000621                       # number of times the floating registers were written
system.cpu.num_func_calls                         292                       # number of times a function call or return occured
system.cpu.num_idle_cycles                   0.002000                       # Number of idle cycles
system.cpu.num_int_alu_accesses              15918660                       # Number of integer alu accesses
system.cpu.num_int_insts                     15918660                       # number of integer instructions
system.cpu.num_int_register_reads            29511700                       # number of times the integer registers were read
system.cpu.num_int_register_writes           11330676                       # number of times the integer registers were written
system.cpu.num_load_insts                      127546                       # Number of load instructions
system.cpu.num_mem_refs                       2327267                       # number of memory refs
system.cpu.num_store_insts                    2199721                       # Number of store instructions
system.cpu.num_vec_alu_accesses                     0                       # Number of vector alu accesses
system.cpu.num_vec_insts                            0                       # number of vector instructions
system.cpu.num_vec_register_reads                   0                       # number of times the vector registers were read
system.cpu.num_vec_register_writes                  0                       # number of times the vector registers were written
system.cpu.op_class::No_OpClass                   287      0.00%      0.00% # Class of executed instruction
system.cpu.op_class::IntAlu                  13965356     78.48%     78.48% # Class of executed instruction
system.cpu.op_class::IntMult                     1004      0.01%     78.49% # Class of executed instruction
system.cpu.op_class::IntDiv                        21      0.00%     78.49% # Class of executed instruction
system.cpu.op_class::FloatAdd                     135      0.00%     78.49% # Class of executed instruction
system.cpu.op_class::FloatCmp                       0      0.00%     78.49% # Class of executed instruction
system.cpu.op_class::FloatCvt                       0      0.00%     78.49% # Class of executed instruction
system.cpu.op_class::FloatMult                      0      0.00%     78.49% # Class of executed instruction
system.cpu.op_class::FloatMultAcc                   0      0.00%     78.49% # Class of executed instruction
system.cpu.op_class::FloatDiv                       0      0.00%     78.49% # Class of executed instruction
system.cpu.op_class::FloatMisc                      0      0.00%     78.49% # Class of executed instruction
system.cpu.op_class::FloatSqrt                      0      0.00%     78.49% # Class of executed instruction
system.cpu.op_class::SimdAdd                   499996      2.81%     81.30% # Class of executed instruction
system.cpu.op_class::SimdAddAcc                     0      0.00%     81.30% # Class of executed instruction
system.cpu.op_class::SimdAlu                   125100      0.70%     82.00% # Class of executed instruction
system.cpu.op_class::SimdCmp                        0      0.00%     82.00% # Class of executed instruction
system.cpu.op_class::SimdCvt                   125044      0.70%     82.71% # Class of executed instruction
system.cpu.op_class::SimdMisc                  750204      4.22%     86.92% # Class of executed instruction
system.cpu.op_class::SimdMult                       0      0.00%     86.92% # Class of executed instruction
system.cpu.op_class::SimdMultAcc                    0      0.00%     86.92% # Class of executed instruction
system.cpu.op_class::SimdShift                      6      0.00%     86.92% # Class of executed instruction
system.cpu.op_class::SimdShiftAcc                   0      0.00%     86.92% # Class of executed instruction
system.cpu.op_class::SimdDiv                        0      0.00%     86.92% # Class of executed instruction
system.cpu.op_class::SimdSqrt                       0      0.00%     86.92% # Class of executed instruction
system.cpu.op_class::SimdFloatAdd                   0      0.00%     86.92% # Class of executed instruction
system.cpu.op_class::SimdFloatAlu                   0      0.00%     86.92% # Class of executed instruction
system.cpu.op_class::SimdFloatCmp                   0      0.00%     86.92% # Class of executed instruction
system.cpu.op_class::SimdFloatCvt                   0      0.00%     86.92% # Class of executed instruction
system.cpu.op_class::SimdFloatDiv                   0      0.00%     86.92% # Class of executed instruction
system.cpu.op_class::SimdFloatMisc                  0      0.00%     86.92% # Class of executed instruction
system.cpu.op_class::SimdFloatMult                  0      0.00%     86.92% # Class of executed instruction
system.cpu.op_class::SimdFloatMultAcc               0      0.00%     86.92% # Class of executed instruction
system.cpu.op_class::SimdFloatSqrt                  0      0.00%     86.92% # Class of executed instruction
system.cpu.op_class::SimdReduceAdd                  0      0.00%     86.92% # Class of executed instruction
system.cpu.op_class::SimdReduceAlu                  0      0.00%     86.92% # Class of executed instruction
system.cpu.op_class::SimdReduceCmp                  0      0.00%     86.92% # Class of executed instruction
system.cpu.op_class::SimdFloatReduceAdd             0      0.00%     86.92% # Class of executed instruction
system.cpu.op_class::SimdFloatReduceCmp             0      0.00%     86.92% # Class of executed instruction
system.cpu.op_class::SimdAes                        0      0.00%     86.92% # Class of executed instruction
system.cpu.op_class::SimdAesMix                     0      0.00%     86.92% # Class of executed instruction
system.cpu.op_class::SimdSha1Hash                   0      0.00%     86.92% # Class of executed instruction
system.cpu.op_class::SimdSha1Hash2                  0      0.00%     86.92% # Class of executed instruction
system.cpu.op_class::SimdSha256Hash                 0      0.00%     86.92% # Class of executed instruction
system.cpu.op_class::SimdSha256Hash2                0      0.00%     86.92% # Class of executed instruction
system.cpu.op_class::SimdShaSigma2                  0      0.00%     86.92% # Class of executed instruction
system.cpu.op_class::SimdShaSigma3                  0      0.00%     86.92% # Class of executed instruction
system.cpu.op_class::SimdPredAlu                    0      0.00%     86.92% # Class of executed instruction
system.cpu.op_class::MemRead                     2500      0.01%     86.94% # Class of executed instruction
system.cpu.op_class::MemWrite                 2199262     12.36%     99.29% # Class of executed instruction
system.cpu.op_class::FloatMemRead              125046      0.70%    100.00% # Class of executed instruction
system.cpu.op_class::FloatMemWrite                459      0.00%    100.00% # Class of executed instruction
system.cpu.op_class::IprAccess                      0      0.00%    100.00% # Class of executed instruction
system.cpu.op_class::InstPrefetch                   0      0.00%    100.00% # Class of executed instruction
system.cpu.op_class::total                   17794420                       # Class of executed instruction
system.cpu.workload.numSyscalls                    11                       # Number of system calls
system.membus.snoop_filter.hit_multi_requests            0                       # Number of requests hitting in the snoop filter with multiple (>1) holders of the requested data.
system.membus.snoop_filter.hit_multi_snoops            0                       # Number of snoops hitting in the snoop filter with multiple (>1) holders of the requested data.
system.membus.snoop_filter.hit_single_requests            0                       # Number of requests hitting in the snoop filter with a single holder of the requested data.
system.membus.snoop_filter.hit_single_snoops            0                       # Number of snoops hitting in the snoop filter with a single holder of the requested data.
system.membus.snoop_filter.tot_requests             0                       # Total number of requests made to the snoop filter.
system.membus.snoop_filter.tot_snoops               0                       # Total number of snoops made to the snoop filter.
system.clk_domain.clock                          1000                       # Clock period in ticks
system.cpu.dtb.rdAccesses                      143172                       # TLB accesses on read requests
system.cpu.dtb.wrAccesses                     2199722                       # TLB accesses on write requests
system.cpu.dtb.rdMisses                           432                       # TLB misses on read requests
system.cpu.dtb.wrMisses                         41238                       # TLB misses on write requests
system.cpu.dtb.walker.power_state.pwrStateResidencyTicks::UNDEFINED  10248631500                       # Cumulative time (in ticks) in various power states
system.cpu.interrupts.clk_domain.clock           8000                       # Clock period in ticks
system.cpu.itb.rdAccesses                           0                       # TLB accesses on read requests
system.cpu.itb.wrAccesses                    12699034                       # TLB accesses on write requests
system.cpu.itb.rdMisses                             0                       # TLB misses on read requests
system.cpu.itb.wrMisses                            39                       # TLB misses on write requests
system.cpu.itb.walker.power_state.pwrStateResidencyTicks::UNDEFINED  10248631500                       # Cumulative time (in ticks) in various power states
system.cpu.power_state.pwrStateResidencyTicks::ON  10248631500                       # Cumulative time (in ticks) in various power states
system.cpu.thread_0.numInsts                        0                       # Number of Instructions committed
system.cpu.thread_0.numOps                          0                       # Number of Ops committed
system.cpu.thread_0.numMemRefs                      0                       # Number of Memory References
system.cpu_clk_domain.clock                       500                       # Clock period in ticks
system.cpu_voltage_domain.voltage                   1                       # Voltage in Volts
system.mem_ctrls.priorityMinLatency      0.000000000000                       # per QoS priority minimum request to response latency (s)
system.mem_ctrls.priorityMaxLatency      0.000000000000                       # per QoS priority maximum request to response latency (s)
system.mem_ctrls.numReadWriteTurnArounds            0                       # Number of turnarounds from READ to WRITE
system.mem_ctrls.numWriteReadTurnArounds            0                       # Number of turnarounds from WRITE to READ
system.mem_ctrls.numStayReadState                   0                       # Number of times bus staying in READ state
system.mem_ctrls.numStayWriteState                  0                       # Number of times bus staying in WRITE state
system.mem_ctrls.readReqs                           0                       # Number of read requests accepted
system.mem_ctrls.writeReqs                          0                       # Number of write requests accepted
system.mem_ctrls.readBursts                         0                       # Number of controller read bursts, including those serviced by the write queue
system.mem_ctrls.writeBursts                        0                       # Number of controller write bursts, including those merged in the write queue
system.mem_ctrls.servicedByWrQ                      0                       # Number of controller read bursts serviced by the write queue
system.mem_ctrls.mergedWrBursts                     0                       # Number of controller write bursts merged with an existing one
system.mem_ctrls.neitherReadNorWriteReqs            0                       # Number of requests that are neither read nor write
system.mem_ctrls.avgRdQLen                       0.00                       # Average read queue length when enqueuing
system.mem_ctrls.avgWrQLen                       0.00                       # Average write queue length when enqueuing
system.mem_ctrls.numRdRetry                         0                       # Number of times read queue was full causing retry
system.mem_ctrls.numWrRetry                         0                       # Number of times write queue was full causing retry
system.mem_ctrls.readPktSize::0                     0                       # Read request sizes (log2)
system.mem_ctrls.readPktSize::1                     0                       # Read request sizes (log2)
system.mem_ctrls.readPktSize::2                     0                       # Read request sizes (log2)
system.mem_ctrls.readPktSize::3                     0                       # Read request sizes (log2)
system.mem_ctrls.readPktSize::4                     0                       # Read request sizes (log2)
system.mem_ctrls.readPktSize::5                     0                       # Read request sizes (log2)
system.mem_ctrls.readPktSize::6                     0                       # Read request sizes (log2)
system.mem_ctrls.writePktSize::0                    0                       # Write request sizes (log2)
system.mem_ctrls.writePktSize::1                    0                       # Write request sizes (log2)
system.mem_ctrls.writePktSize::2                    0                       # Write request sizes (log2)
system.mem_ctrls.writePktSize::3                    0                       # Write request sizes (log2)
system.mem_ctrls.writePktSize::4                    0                       # Write request sizes (log2)
system.mem_ctrls.writePktSize::5                    0                       # Write request sizes (log2)
system.mem_ctrls.writePktSize::6                    0                       # Write request sizes (log2)
system.mem_ctrls.rdQLenPdf::0                       0                       # What read queue length does an incoming req see
system.mem_ctrls.rdQLenPdf::1                       0                       # What read queue length does an incoming req see
system.mem_ctrls.rdQLenPdf::2                       0                       # What read queue length does an incoming req see
system.mem_ctrls.rdQLenPdf::3                       0                       # What read queue length does an incoming req see
system.mem_ctrls.rdQLenPdf::4                       0                       # What read queue length does an incoming req see
system.mem_ctrls.rdQLenPdf::5                       0                       # What read queue length does an incoming req see
system.mem_ctrls.rdQLenPdf::6                       0                       # What read queue length does an incoming req see
system.mem_ctrls.rdQLenPdf::7                       0                       # What read queue length does an incoming req see
system.mem_ctrls.rdQLenPdf::8                       0                       # What read queue length does an incoming req see
system.mem_ctrls.rdQLenPdf::9                       0                       # What read queue length does an incoming req see
system.mem_ctrls.rdQLenPdf::10                      0                       # What read queue length does an incoming req see
system.mem_ctrls.rdQLenPdf::11                      0                       # What read queue length does an incoming req see
system.mem_ctrls.rdQLenPdf::12                      0                       # What read queue length does an incoming req see
system.mem_ctrls.rdQLenPdf::13                      0                       # What read queue length does an incoming req see
system.mem_ctrls.rdQLenPdf::14                      0                       # What read queue length does an incoming req see
system.mem_ctrls.rdQLenPdf::15                      0                       # What read queue length does an incoming req see
system.mem_ctrls.rdQLenPdf::16                      0                       # What read queue length does an incoming req see
system.mem_ctrls.rdQLenPdf::17                      0                       # What read queue length does an incoming req see
system.mem_ctrls.rdQLenPdf::18                      0                       # What read queue length does an incoming req see
system.mem_ctrls.rdQLenPdf::19                      0                       # What read queue length does an incoming req see
system.mem_ctrls.rdQLenPdf::20                      0                       # What read queue length does an incoming req see
system.mem_ctrls.rdQLenPdf::21                      0                       # What read queue length does an incoming req see
system.mem_ctrls.rdQLenPdf::22                      0                       # What read queue length does an incoming req see
system.mem_ctrls.rdQLenPdf::23                      0                       # What read queue length does an incoming req see
system.mem_ctrls.rdQLenPdf::24                      0                       # What read queue length does an incoming req see
system.mem_ctrls.rdQLenPdf::25                      0                       # What read queue length does an incoming req see
system.mem_ctrls.rdQLenPdf::26                      0                       # What read queue length does an incoming req see
system.mem_ctrls.rdQLenPdf::27                      0                       # What read queue length does an incoming req see
system.mem_ctrls.rdQLenPdf::28                      0                       # What read queue length does an incoming req see
system.mem_ctrls.rdQLenPdf::29                      0                       # What read queue length does an incoming req see
system.mem_ctrls.rdQLenPdf::30                      0                       # What read queue length does an incoming req see
system.mem_ctrls.rdQLenPdf::31                      0                       # What read queue length does an incoming req see
system.mem_ctrls.wrQLenPdf::0                       0                       # What write queue length does an incoming req see
system.mem_ctrls.wrQLenPdf::1                       0                       # What write queue length does an incoming req see
system.mem_ctrls.wrQLenPdf::2                       0                       # What write queue length does an incoming req see
system.mem_ctrls.wrQLenPdf::3                       0                       # What write queue length does an incoming req see
system.mem_ctrls.wrQLenPdf::4                       0                       # What write queue length does an incoming req see
system.mem_ctrls.wrQLenPdf::5                       0                       # What write queue length does an incoming req see
system.mem_ctrls.wrQLenPdf::6                       0                       # What write queue length does an incoming req see
system.mem_ctrls.wrQLenPdf::7                       0                       # What write queue length does an incoming req see
system.mem_ctrls.wrQLenPdf::8                       0                       # What write queue length does an incoming req see
system.mem_ctrls.wrQLenPdf::9                       0                       # What write queue length does an incoming req see
system.mem_ctrls.wrQLenPdf::10                      0                       # What write queue length does an incoming req see
system.mem_ctrls.wrQLenPdf::11                      0                       # What write queue length does an incoming req see
system.mem_ctrls.wrQLenPdf::12                      0                       # What write queue length does an incoming req see
system.mem_ctrls.wrQLenPdf::13                      0                       # What write queue length does an incoming req see
system.mem_ctrls.wrQLenPdf::14                      0                       # What write queue length does an incoming req see
system.mem_ctrls.wrQLenPdf::15                      0                       # What write queue length does an incoming req see
system.mem_ctrls.wrQLenPdf::16                      0                       # What write queue length does an incoming req see
system.mem_ctrls.wrQLenPdf::17                      0                       # What write queue length does an incoming req see
system.mem_ctrls.wrQLenPdf::18                      0                       # What write queue length does an incoming req see
system.mem_ctrls.wrQLenPdf::19                      0                       # What write queue length does an incoming req see
system.mem_ctrls.wrQLenPdf::20                      0                       # What write queue length does an incoming req see
system.mem_ctrls.wrQLenPdf::21                      0                       # What write queue length does an incoming req see
system.mem_ctrls.wrQLenPdf::22                      0                       # What write queue length does an incoming req see
system.mem_ctrls.wrQLenPdf::23                      0                       # What write queue length does an incoming req see
system.mem_ctrls.wrQLenPdf::24                      0                       # What write queue length does an incoming req see
system.mem_ctrls.wrQLenPdf::25                      0                       # What write queue length does an incoming req see
system.mem_ctrls.wrQLenPdf::26                      0                       # What write queue length does an incoming req see
system.mem_ctrls.wrQLenPdf::27                      0                       # What write queue length does an incoming req see
system.mem_ctrls.wrQLenPdf::28                      0                       # What write queue length does an incoming req see
system.mem_ctrls.wrQLenPdf::29                      0                       # What write queue length does an incoming req see
system.mem_ctrls.wrQLenPdf::30                      0                       # What write queue length does an incoming req see
system.mem_ctrls.wrQLenPdf::31                      0                       # What write queue length does an incoming req see
system.mem_ctrls.wrQLenPdf::32                      0                       # What write queue length does an incoming req see
system.mem_ctrls.wrQLenPdf::33                      0                       # What write queue length does an incoming req see
system.mem_ctrls.wrQLenPdf::34                      0                       # What write queue length does an incoming req see
system.mem_ctrls.wrQLenPdf::35                      0                       # What write queue length does an incoming req see
system.mem_ctrls.wrQLenPdf::36                      0                       # What write queue length does an incoming req see
system.mem_ctrls.wrQLenPdf::37                      0                       # What write queue length does an incoming req see
system.mem_ctrls.wrQLenPdf::38                      0                       # What write queue length does an incoming req see
system.mem_ctrls.wrQLenPdf::39                      0                       # What write queue length does an incoming req see
system.mem_ctrls.wrQLenPdf::40                      0                       # What write queue length does an incoming req see
system.mem_ctrls.wrQLenPdf::41                      0                       # What write queue length does an incoming req see
system.mem_ctrls.wrQLenPdf::42                      0                       # What write queue length does an incoming req see
system.mem_ctrls.wrQLenPdf::43                      0                       # What write queue length does an incoming req see
system.mem_ctrls.wrQLenPdf::44                      0                       # What write queue length does an incoming req see
system.mem_ctrls.wrQLenPdf::45                      0                       # What write queue length does an incoming req see
system.mem_ctrls.wrQLenPdf::46                      0                       # What write queue length does an incoming req see
system.mem_ctrls.wrQLenPdf::47                      0                       # What write queue length does an incoming req see
system.mem_ctrls.wrQLenPdf::48                      0                       # What write queue length does an incoming req see
system.mem_ctrls.wrQLenPdf::49                      0                       # What write queue length does an incoming req see
system.mem_ctrls.wrQLenPdf::50                      0                       # What write queue length does an incoming req see
system.mem_ctrls.wrQLenPdf::51                      0                       # What write queue length does an incoming req see
system.mem_ctrls.wrQLenPdf::52                      0                       # What write queue length does an incoming req see
system.mem_ctrls.wrQLenPdf::53                      0                       # What write queue length does an incoming req see
system.mem_ctrls.wrQLenPdf::54                      0                       # What write queue length does an incoming req see
system.mem_ctrls.wrQLenPdf::55                      0                       # What write queue length does an incoming req see
system.mem_ctrls.wrQLenPdf::56                      0                       # What write queue length does an incoming req see
system.mem_ctrls.wrQLenPdf::57                      0                       # What write queue length does an incoming req see
system.mem_ctrls.wrQLenPdf::58                      0                       # What write queue length does an incoming req see
system.mem_ctrls.wrQLenPdf::59                      0                       # What write queue length does an incoming req see
system.mem_ctrls.wrQLenPdf::60                      0                       # What write queue length does an incoming req see
system.mem_ctrls.wrQLenPdf::61                      0                       # What write queue length does an incoming req see
system.mem_ctrls.wrQLenPdf::62                      0                       # What write queue length does an incoming req see
system.mem_ctrls.wrQLenPdf::63                      0                       # What write queue length does an incoming req see
system.mem_ctrls.bytesReadWrQ                       0                       # Total number of bytes read from write queue
system.mem_ctrls.bytesReadSys                       0                       # Total read bytes from the system interface side
system.mem_ctrls.bytesWrittenSys                    0                       # Total written bytes from the system interface side
system.mem_ctrls.avgRdBWSys                      0.00                       # Average system read bandwidth in MiByte/s
system.mem_ctrls.avgWrBWSys                      0.00                       # Average system write bandwidth in MiByte/s
system.mem_ctrls.totGap                             0                       # Total gap between requests
system.mem_ctrls.avgGap                           nan                       # Average gap between requests
system.mem_ctrls.dram.bytes_read::.cpu.inst    101592272                       # Number of bytes read from this memory
system.mem_ctrls.dram.bytes_read::.cpu.data      1010866                       # Number of bytes read from this memory
system.mem_ctrls.dram.bytes_read::total     102603138                       # Number of bytes read from this memory
system.mem_ctrls.dram.bytes_inst_read::.cpu.inst    101592272                       # Number of instructions bytes read from this memory
system.mem_ctrls.dram.bytes_inst_read::total    101592272                       # Number of instructions bytes read from this memory
system.mem_ctrls.dram.bytes_written::.cpu.data      2210160                       # Number of bytes written to this memory
system.mem_ctrls.dram.bytes_written::total      2210160                       # Number of bytes written to this memory
system.mem_ctrls.dram.num_reads::.cpu.inst     12699034                       # Number of read requests responded to by this memory
system.mem_ctrls.dram.num_reads::.cpu.data       143171                       # Number of read requests responded to by this memory
system.mem_ctrls.dram.num_reads::total       12842205                       # Number of read requests responded to by this memory
system.mem_ctrls.dram.num_writes::.cpu.data      2199475                       # Number of write requests responded to by this memory
system.mem_ctrls.dram.num_writes::total       2199475                       # Number of write requests responded to by this memory
system.mem_ctrls.dram.bw_read::.cpu.inst   9912764646                       # Total read bandwidth from this memory (bytes/s)
system.mem_ctrls.dram.bw_read::.cpu.data     98634242                       # Total read bandwidth from this memory (bytes/s)
system.mem_ctrls.dram.bw_read::total      10011398888                       # Total read bandwidth from this memory (bytes/s)
system.mem_ctrls.dram.bw_inst_read::.cpu.inst   9912764646                       # Instruction read bandwidth from this memory (bytes/s)
system.mem_ctrls.dram.bw_inst_read::total   9912764646                       # Instruction read bandwidth from this memory (bytes/s)
system.mem_ctrls.dram.bw_write::.cpu.data    215654158                       # Write bandwidth from this memory (bytes/s)
system.mem_ctrls.dram.bw_write::total       215654158                       # Write bandwidth from this memory (bytes/s)
system.mem_ctrls.dram.bw_total::.cpu.inst   9912764646                       # Total bandwidth to/from this memory (bytes/s)
system.mem_ctrls.dram.bw_total::.cpu.data    314288400                       # Total bandwidth to/from this memory (bytes/s)
system.mem_ctrls.dram.bw_total::total     10227053046                       # Total bandwidth to/from this memory (bytes/s)
system.mem_ctrls.dram.readBursts                    0                       # Number of DRAM read bursts
system.mem_ctrls.dram.writeBursts                   0                       # Number of DRAM write bursts
system.mem_ctrls.dram.perBankRdBursts::0            0                       # Per bank write bursts
system.mem_ctrls.dram.perBankRdBursts::1            0                       # Per bank write bursts
system.mem_ctrls.dram.perBankRdBursts::2            0                       # Per bank write bursts
system.mem_ctrls.dram.perBankRdBursts::3            0                       # Per bank write bursts
system.mem_ctrls.dram.perBankRdBursts::4            0                       # Per bank write bursts
system.mem_ctrls.dram.perBankRdBursts::5            0                       # Per bank write bursts
system.mem_ctrls.dram.perBankRdBursts::6            0                       # Per bank write bursts
system.mem_ctrls.dram.perBankRdBursts::7            0                       # Per bank write bursts
system.mem_ctrls.dram.perBankRdBursts::8            0                       # Per bank write bursts
system.mem_ctrls.dram.perBankRdBursts::9            0                       # Per bank write bursts
system.mem_ctrls.dram.perBankRdBursts::10            0                       # Per bank write bursts
system.mem_ctrls.dram.perBankRdBursts::11            0                       # Per bank write bursts
system.mem_ctrls.dram.perBankRdBursts::12            0                       # Per bank write bursts
system.mem_ctrls.dram.perBankRdBursts::13            0                       # Per bank write bursts
system.mem_ctrls.dram.perBankRdBursts::14            0                       # Per bank write bursts
system.mem_ctrls.dram.perBankRdBursts::15            0                       # Per bank write bursts
system.mem_ctrls.dram.perBankWrBursts::0            0                       # Per bank write bursts
system.mem_ctrls.dram.perBankWrBursts::1            0                       # Per bank write bursts
system.mem_ctrls.dram.perBankWrBursts::2            0                       # Per bank write bursts
system.mem_ctrls.dram.perBankWrBursts::3            0                       # Per bank write bursts
system.mem_ctrls.dram.perBankWrBursts::4            0                       # Per bank write bursts
system.mem_ctrls.dram.perBankWrBursts::5            0                       # Per bank write bursts
system.mem_ctrls.dram.perBankWrBursts::6            0                       # Per bank write bursts
system.mem_ctrls.dram.perBankWrBursts::7            0                       # Per bank write bursts
system.mem_ctrls.dram.perBankWrBursts::8            0                       # Per bank write bursts
system.mem_ctrls.dram.perBankWrBursts::9            0                       # Per bank write bursts
system.mem_ctrls.dram.perBankWrBursts::10            0                       # Per bank write bursts
system.mem_ctrls.dram.perBankWrBursts::11            0                       # Per bank write bursts
system.mem_ctrls.dram.perBankWrBursts::12            0                       # Per bank write bursts
system.mem_ctrls.dram.perBankWrBursts::13            0                       # Per bank write bursts
system.mem_ctrls.dram.perBankWrBursts::14            0                       # Per bank write bursts
system.mem_ctrls.dram.perBankWrBursts::15            0                       # Per bank write bursts
system.mem_ctrls.dram.totQLat                       0                       # Total ticks spent queuing
system.mem_ctrls.dram.totBusLat                     0                       # Total ticks spent in databus transfers
system.mem_ctrls.dram.totMemAccLat                  0                       # Total ticks spent from burst creation until serviced by the DRAM
system.mem_ctrls.dram.avgQLat                     nan                       # Average queueing delay per DRAM burst
system.mem_ctrls.dram.avgBusLat                   nan                       # Average bus latency per DRAM burst
system.mem_ctrls.dram.avgMemAccLat                nan                       # Average memory access latency per DRAM burst
system.mem_ctrls.dram.readRowHits                   0                       # Number of row buffer hits during reads
system.mem_ctrls.dram.writeRowHits                  0                       # Number of row buffer hits during writes
system.mem_ctrls.dram.readRowHitRate              nan                       # Row buffer hit rate for reads
system.mem_ctrls.dram.writeRowHitRate             nan                       # Row buffer hit rate for writes
system.mem_ctrls.dram.bytesRead                     0                       # Total number of bytes read from DRAM
system.mem_ctrls.dram.bytesWritten                  0                       # Total number of bytes written to DRAM
system.mem_ctrls.dram.avgRdBW                       0                       # Average DRAM read bandwidth in MiBytes/s
system.mem_ctrls.dram.avgWrBW                       0                       # Average DRAM write bandwidth in MiBytes/s
system.mem_ctrls.dram.peakBW                 12800.00                       # Theoretical peak bandwidth in MiByte/s
system.mem_ctrls.dram.busUtil                    0.00                       # Data bus utilization in percentage
system.mem_ctrls.dram.busUtilRead                0.00                       # Data bus utilization in percentage for reads
system.mem_ctrls.dram.busUtilWrite               0.00                       # Data bus utilization in percentage for writes
system.mem_ctrls.dram.pageHitRate                 nan                       # Row buffer hit rate, read and write combined
system.mem_ctrls.dram.power_state.pwrStateResidencyTicks::UNDEFINED  10248631500                       # Cumulative time (in ticks) in various power states
system.mem_ctrls.dram.rank0.actEnergy               0                       # Energy for activate commands per rank (pJ)
system.mem_ctrls.dram.rank0.preEnergy               0                       # Energy for precharge commands per rank (pJ)
system.mem_ctrls.dram.rank0.readEnergy              0                       # Energy for read commands per rank (pJ)
system.mem_ctrls.dram.rank0.writeEnergy             0                       # Energy for write commands per rank (pJ)
system.mem_ctrls.dram.rank0.refreshEnergy            0                       # Energy for refresh commands per rank (pJ)
system.mem_ctrls.dram.rank0.actBackEnergy            0                       # Energy for active background per rank (pJ)
system.mem_ctrls.dram.rank0.preBackEnergy   3935474880                       # Energy for precharge background per rank (pJ)
system.mem_ctrls.dram.rank0.actPowerDownEnergy            0                       # Energy for active power-down per rank (pJ)
system.mem_ctrls.dram.rank0.prePowerDownEnergy            0                       # Energy for precharge power-down per rank (pJ)
system.mem_ctrls.dram.rank0.selfRefreshEnergy            0                       # Energy for self refresh per rank (pJ)
system.mem_ctrls.dram.rank0.totalEnergy    3935474880                       # Total energy per rank (pJ)
system.mem_ctrls.dram.rank0.averagePower   384.000037                       # Core power per rank (mW)
system.mem_ctrls.dram.rank0.totalIdleTime            0                       # Total Idle time Per DRAM Rank
system.mem_ctrls.dram.rank0.pwrStateTime::IDLE  10248631500                       # Time in different power states
system.mem_ctrls.dram.rank0.pwrStateTime::REF            0                       # Time in different power states
system.mem_ctrls.dram.rank0.pwrStateTime::SREF            0                       # Time in different power states
system.mem_ctrls.dram.rank0.pwrStateTime::PRE_PDN            0                       # Time in different power states
system.mem_ctrls.dram.rank0.pwrStateTime::ACT            0                       # Time in different power states
system.mem_ctrls.dram.rank0.pwrStateTime::ACT_PDN            0                       # Time in different power states
system.mem_ctrls.dram.rank1.actEnergy               0                       # Energy for activate commands per rank (pJ)
system.mem_ctrls.dram.rank1.preEnergy               0                       # Energy for precharge commands per rank (pJ)
system.mem_ctrls.dram.rank1.readEnergy              0                       # Energy for read commands per rank (pJ)
system.mem_ctrls.dram.rank1.writeEnergy             0                       # Energy for write commands per rank (pJ)
system.mem_ctrls.dram.rank1.refreshEnergy            0                       # Energy for refresh commands per rank (pJ)
system.mem_ctrls.dram.rank1.actBackEnergy            0                       # Energy for active background per rank (pJ)
system.mem_ctrls.dram.rank1.preBackEnergy   3935474880                       # Energy for precharge background per rank (pJ)
system.mem_ctrls.dram.rank1.actPowerDownEnergy            0                       # Energy for active power-down per rank (pJ)
system.mem_ctrls.dram.rank1.prePowerDownEnergy            0                       # Energy for precharge power-down per rank (pJ)
system.mem_ctrls.dram.rank1.selfRefreshEnergy            0                       # Energy for self refresh per rank (pJ)
system.mem_ctrls.dram.rank1.totalEnergy    3935474880                       # Total energy per rank (pJ)
system.mem_ctrls.dram.rank1.averagePower   384.000037                       # Core power per rank (mW)
system.mem_ctrls.dram.rank1.totalIdleTime            0                       # Total Idle time Per DRAM Rank
system.mem_ctrls.dram.rank1.pwrStateTime::IDLE  10248631500                       # Time in different power states
system.mem_ctrls.dram.rank1.pwrStateTime::REF            0                       # Time in different power states
system.mem_ctrls.dram.rank1.pwrStateTime::SREF            0                       # Time in different power states
system.mem_ctrls.dram.rank1.pwrStateTime::PRE_PDN            0                       # Time in different power states
system.mem_ctrls.dram.rank1.pwrStateTime::ACT            0                       # Time in different power states
system.mem_ctrls.dram.rank1.pwrStateTime::ACT_PDN            0                       # Time in different power states
system.mem_ctrls.power_state.pwrStateResidencyTicks::UNDEFINED  10248631500                       # Cumulative time (in ticks) in various power states
system.membus.trans_dist::ReadReq            12842205                       # Transaction distribution
system.membus.trans_dist::ReadResp           12842205                       # Transaction distribution
system.membus.trans_dist::WriteReq            2199475                       # Transaction distribution
system.membus.trans_dist::WriteResp           2199475                       # Transaction distribution
system.membus.pkt_count_system.cpu.icache_port::system.mem_ctrls.port     25398068                       # Packet count per connected requestor and responder (bytes)
system.membus.pkt_count_system.cpu.icache_port::total     25398068                       # Packet count per connected requestor and responder (bytes)
system.membus.pkt_count_system.cpu.dcache_port::system.mem_ctrls.port      4685292                       # Packet count per connected requestor and responder (bytes)
system.membus.pkt_count_system.cpu.dcache_port::total      4685292                       # Packet count per connected requestor and responder (bytes)
system.membus.pkt_count::total               30083360                       # Packet count per connected requestor and responder (bytes)
system.membus.pkt_size_system.cpu.icache_port::system.mem_ctrls.port    101592272                       # Cumulative packet size per connected requestor and responder (bytes)
system.membus.pkt_size_system.cpu.icache_port::total    101592272                       # Cumulative packet size per connected requestor and responder (bytes)
system.membus.pkt_size_system.cpu.dcache_port::system.mem_ctrls.port      3221026                       # Cumulative packet size per connected requestor and responder (bytes)
system.membus.pkt_size_system.cpu.dcache_port::total      3221026                       # Cumulative packet size per connected requestor and responder (bytes)
system.membus.pkt_size::total               104813298                       # Cumulative packet size per connected requestor and responder (bytes)
system.membus.snoops                                0                       # Total snoops (count)
system.membus.snoopTraffic                          0                       # Total snoop traffic (bytes)
system.membus.snoop_fanout::samples          15041680                       # Request fanout histogram
system.membus.snoop_fanout::mean                    0                       # Request fanout histogram
system.membus.snoop_fanout::stdev                   0                       # Request fanout histogram
system.membus.snoop_fanout::underflows              0      0.00%      0.00% # Request fanout histogram
system.membus.snoop_fanout::0                15041680    100.00%    100.00% # Request fanout histogram
system.membus.snoop_fanout::1                       0      0.00%    100.00% # Request fanout histogram
system.membus.snoop_fanout::overflows               0      0.00%    100.00% # Request fanout histogram
system.membus.snoop_fanout::min_value               0                       # Request fanout histogram
system.membus.snoop_fanout::max_value               0                       # Request fanout histogram
system.membus.snoop_fanout::total            15041680                       # Request fanout histogram
system.membus.power_state.pwrStateResidencyTicks::UNDEFINED  10248631500                       # Cumulative time (in ticks) in various power states
system.voltage_domain.voltage                       1                       # Voltage in Volts

---------- End Simulation Statistics   ----------
