
---------- Begin Simulation Statistics ----------
final_tick                                  428701576                       # Number of ticks from beginning of simulation (restored from checkpoints and never reset)
host_inst_rate                                 203124                       # Simulator instruction rate (inst/s)
host_mem_usage                                 654616                       # Number of bytes of host memory used
host_op_rate                                   339411                       # Simulator op (including micro ops) rate (op/s)
host_seconds                                     5.85                       # Real time elapsed on the host
host_tick_rate                               73335650                       # Simulator tick rate (ticks/s)
sim_freq                                 1000000000000                       # Frequency of simulated ticks
sim_insts                                     1187371                       # Number of instructions simulated
sim_ops                                       1984103                       # Number of ops (including micro ops) simulated
sim_seconds                                  0.000429                       # Number of seconds simulated
sim_ticks                                   428701576                       # Number of ticks simulated
system.cpu.cc_regfile_reads                   1359309                       # number of cc regfile reads
system.cpu.cc_regfile_writes                   937198                       # number of cc regfile writes
system.cpu.committedInsts                     1187371                       # Number of Instructions Simulated
system.cpu.committedOps                       1984103                       # Number of Ops (including micro ops) Simulated
system.cpu.cpi                               0.649373                       # CPI: Cycles Per Instruction
system.cpu.cpi_total                         0.649373                       # CPI: Total CPI of All Threads
system.cpu.fp_regfile_reads                     25036                       # number of floating regfile reads
system.cpu.fp_regfile_writes                    25009                       # number of floating regfile writes
system.cpu.idleCycles                           35128                       # Total number of cycles that the CPU has spent unscheduled due to idling
system.cpu.iew.branchMispredicts                17708                       # Number of branch mispredicts detected at execute
system.cpu.iew.exec_branches                   275536                       # Number of branches executed
system.cpu.iew.exec_nop                             0                       # number of nop insts executed
system.cpu.iew.exec_rate                     3.016099                       # Inst execution rate
system.cpu.iew.exec_refs                       353516                       # number of memory reference insts executed
system.cpu.iew.exec_stores                     149185                       # Number of stores executed
system.cpu.iew.exec_swp                             0                       # number of swp insts executed
system.cpu.iew.iewBlockCycles                   72026                       # Number of cycles IEW is blocking
system.cpu.iew.iewDispLoadInsts                212538                       # Number of dispatched load instructions
system.cpu.iew.iewDispNonSpecInsts                  1                       # Number of dispatched non-speculative instructions
system.cpu.iew.iewDispSquashedInsts              2481                       # Number of squashed instructions skipped by dispatch
system.cpu.iew.iewDispStoreInsts               160537                       # Number of dispatched store instructions
system.cpu.iew.iewDispatchedInsts             2447934                       # Number of instructions dispatched to IQ
system.cpu.iew.iewExecLoadInsts                204331                       # Number of load instructions executed
system.cpu.iew.iewExecSquashedInsts             46406                       # Number of squashed instructions skipped in execute
system.cpu.iew.iewExecutedInsts               2325554                       # Number of executed instructions
system.cpu.iew.iewIQFullEvents                    612                       # Number of times the IQ has become full, causing a stall
system.cpu.iew.iewIdleCycles                        0                       # Number of cycles IEW is idle
system.cpu.iew.iewLSQFullEvents                  1287                       # Number of times the LSQ has become full, causing a stall
system.cpu.iew.iewSquashCycles                  16845                       # Number of cycles IEW is squashing
system.cpu.iew.iewUnblockCycles                  1988                       # Number of cycles IEW is unblocking
system.cpu.iew.memOrderViolationEvents             19                       # Number of memory order violations
system.cpu.iew.predictedNotTakenIncorrect        10108                       # Number of branches that were predicted not taken incorrectly
system.cpu.iew.predictedTakenIncorrect           7600                       # Number of branches that were predicted taken incorrectly
system.cpu.iew.wb_consumers                   2408276                       # num instructions consuming a value
system.cpu.iew.wb_count                       2309635                       # cumulative count of insts written-back
system.cpu.iew.wb_fanout                     0.676933                       # average fanout of values written-back
system.cpu.iew.wb_producers                   1630242                       # num instructions producing a value
system.cpu.iew.wb_rate                       2.995453                       # insts written-back per cycle
system.cpu.iew.wb_sent                        2313713                       # cumulative count of insts sent to commit
system.cpu.int_regfile_reads                  3324445                       # number of integer regfile reads
system.cpu.int_regfile_writes                 1846568                       # number of integer regfile writes
system.cpu.ipc                               1.539946                       # IPC: Instructions Per Cycle
system.cpu.ipc_total                         1.539946                       # IPC: Total IPC of All Threads
system.cpu.iq.FU_type_0::No_OpClass             15586      0.66%      0.66% # Type of FU issued
system.cpu.iq.FU_type_0::IntAlu               1994052     84.07%     84.72% # Type of FU issued
system.cpu.iq.FU_type_0::IntMult                    5      0.00%     84.72% # Type of FU issued
system.cpu.iq.FU_type_0::IntDiv                    22      0.00%     84.73% # Type of FU issued
system.cpu.iq.FU_type_0::FloatAdd                 136      0.01%     84.73% # Type of FU issued
system.cpu.iq.FU_type_0::FloatCmp                   0      0.00%     84.73% # Type of FU issued
system.cpu.iq.FU_type_0::FloatCvt                   0      0.00%     84.73% # Type of FU issued
system.cpu.iq.FU_type_0::FloatMult                  0      0.00%     84.73% # Type of FU issued
system.cpu.iq.FU_type_0::FloatMultAcc               0      0.00%     84.73% # Type of FU issued
system.cpu.iq.FU_type_0::FloatDiv                   0      0.00%     84.73% # Type of FU issued
system.cpu.iq.FU_type_0::FloatMisc                  0      0.00%     84.73% # Type of FU issued
system.cpu.iq.FU_type_0::FloatSqrt                  0      0.00%     84.73% # Type of FU issued
system.cpu.iq.FU_type_0::SimdAdd                    0      0.00%     84.73% # Type of FU issued
system.cpu.iq.FU_type_0::SimdAddAcc                 0      0.00%     84.73% # Type of FU issued
system.cpu.iq.FU_type_0::SimdAlu                  154      0.01%     84.74% # Type of FU issued
system.cpu.iq.FU_type_0::SimdCmp                    0      0.00%     84.74% # Type of FU issued
system.cpu.iq.FU_type_0::SimdCvt                   48      0.00%     84.74% # Type of FU issued
system.cpu.iq.FU_type_0::SimdMisc                 218      0.01%     84.75% # Type of FU issued
system.cpu.iq.FU_type_0::SimdMult                   0      0.00%     84.75% # Type of FU issued
system.cpu.iq.FU_type_0::SimdMultAcc                0      0.00%     84.75% # Type of FU issued
system.cpu.iq.FU_type_0::SimdShift                  0      0.00%     84.75% # Type of FU issued
system.cpu.iq.FU_type_0::SimdShiftAcc               0      0.00%     84.75% # Type of FU issued
system.cpu.iq.FU_type_0::SimdDiv                    0      0.00%     84.75% # Type of FU issued
system.cpu.iq.FU_type_0::SimdSqrt                   0      0.00%     84.75% # Type of FU issued
system.cpu.iq.FU_type_0::SimdFloatAdd               0      0.00%     84.75% # Type of FU issued
system.cpu.iq.FU_type_0::SimdFloatAlu               0      0.00%     84.75% # Type of FU issued
system.cpu.iq.FU_type_0::SimdFloatCmp               0      0.00%     84.75% # Type of FU issued
system.cpu.iq.FU_type_0::SimdFloatCvt               0      0.00%     84.75% # Type of FU issued
system.cpu.iq.FU_type_0::SimdFloatDiv               0      0.00%     84.75% # Type of FU issued
system.cpu.iq.FU_type_0::SimdFloatMisc              0      0.00%     84.75% # Type of FU issued
system.cpu.iq.FU_type_0::SimdFloatMult              0      0.00%     84.75% # Type of FU issued
system.cpu.iq.FU_type_0::SimdFloatMultAcc            0      0.00%     84.75% # Type of FU issued
system.cpu.iq.FU_type_0::SimdFloatSqrt              0      0.00%     84.75% # Type of FU issued
system.cpu.iq.FU_type_0::SimdReduceAdd              0      0.00%     84.75% # Type of FU issued
system.cpu.iq.FU_type_0::SimdReduceAlu              0      0.00%     84.75% # Type of FU issued
system.cpu.iq.FU_type_0::SimdReduceCmp              0      0.00%     84.75% # Type of FU issued
system.cpu.iq.FU_type_0::SimdFloatReduceAdd            0      0.00%     84.75% # Type of FU issued
system.cpu.iq.FU_type_0::SimdFloatReduceCmp            0      0.00%     84.75% # Type of FU issued
system.cpu.iq.FU_type_0::SimdAes                    0      0.00%     84.75% # Type of FU issued
system.cpu.iq.FU_type_0::SimdAesMix                 0      0.00%     84.75% # Type of FU issued
system.cpu.iq.FU_type_0::SimdSha1Hash               0      0.00%     84.75% # Type of FU issued
system.cpu.iq.FU_type_0::SimdSha1Hash2              0      0.00%     84.75% # Type of FU issued
system.cpu.iq.FU_type_0::SimdSha256Hash             0      0.00%     84.75% # Type of FU issued
system.cpu.iq.FU_type_0::SimdSha256Hash2            0      0.00%     84.75% # Type of FU issued
system.cpu.iq.FU_type_0::SimdShaSigma2              0      0.00%     84.75% # Type of FU issued
system.cpu.iq.FU_type_0::SimdShaSigma3              0      0.00%     84.75% # Type of FU issued
system.cpu.iq.FU_type_0::SimdPredAlu                0      0.00%     84.75% # Type of FU issued
system.cpu.iq.FU_type_0::MemRead               183299      7.73%     92.48% # Type of FU issued
system.cpu.iq.FU_type_0::MemWrite              128015      5.40%     97.87% # Type of FU issued
system.cpu.iq.FU_type_0::FloatMemRead           25964      1.09%     98.97% # Type of FU issued
system.cpu.iq.FU_type_0::FloatMemWrite          24461      1.03%    100.00% # Type of FU issued
system.cpu.iq.FU_type_0::IprAccess                  0      0.00%    100.00% # Type of FU issued
system.cpu.iq.FU_type_0::InstPrefetch               0      0.00%    100.00% # Type of FU issued
system.cpu.iq.FU_type_0::total                2371960                       # Type of FU issued
system.cpu.iq.fp_alu_accesses                   51154                       # Number of floating point alu accesses
system.cpu.iq.fp_inst_queue_reads              102282                       # Number of floating instruction queue reads
system.cpu.iq.fp_inst_queue_wakeup_accesses        48724                       # Number of floating instruction queue wakeup accesses
system.cpu.iq.fp_inst_queue_writes              56803                       # Number of floating instruction queue writes
system.cpu.iq.fu_busy_cnt                       65096                       # FU busy when requested
system.cpu.iq.fu_busy_rate                   0.027444                       # FU busy rate (busy events/executed inst)
system.cpu.iq.fu_full::No_OpClass                   0      0.00%      0.00% # attempts to use FU when none available
system.cpu.iq.fu_full::IntAlu                   64999     99.85%     99.85% # attempts to use FU when none available
system.cpu.iq.fu_full::IntMult                      0      0.00%     99.85% # attempts to use FU when none available
system.cpu.iq.fu_full::IntDiv                       0      0.00%     99.85% # attempts to use FU when none available
system.cpu.iq.fu_full::FloatAdd                     0      0.00%     99.85% # attempts to use FU when none available
system.cpu.iq.fu_full::FloatCmp                     0      0.00%     99.85% # attempts to use FU when none available
system.cpu.iq.fu_full::FloatCvt                     0      0.00%     99.85% # attempts to use FU when none available
system.cpu.iq.fu_full::FloatMult                    0      0.00%     99.85% # attempts to use FU when none available
system.cpu.iq.fu_full::FloatMultAcc                 0      0.00%     99.85% # attempts to use FU when none available
system.cpu.iq.fu_full::FloatDiv                     0      0.00%     99.85% # attempts to use FU when none available
system.cpu.iq.fu_full::FloatMisc                    0      0.00%     99.85% # attempts to use FU when none available
system.cpu.iq.fu_full::FloatSqrt                    0      0.00%     99.85% # attempts to use FU when none available
system.cpu.iq.fu_full::SimdAdd                      0      0.00%     99.85% # attempts to use FU when none available
system.cpu.iq.fu_full::SimdAddAcc                   0      0.00%     99.85% # attempts to use FU when none available
system.cpu.iq.fu_full::SimdAlu                     11      0.02%     99.87% # attempts to use FU when none available
system.cpu.iq.fu_full::SimdCmp                      0      0.00%     99.87% # attempts to use FU when none available
system.cpu.iq.fu_full::SimdCvt                      1      0.00%     99.87% # attempts to use FU when none available
system.cpu.iq.fu_full::SimdMisc                     2      0.00%     99.87% # attempts to use FU when none available
system.cpu.iq.fu_full::SimdMult                     0      0.00%     99.87% # attempts to use FU when none available
system.cpu.iq.fu_full::SimdMultAcc                  0      0.00%     99.87% # attempts to use FU when none available
system.cpu.iq.fu_full::SimdShift                    0      0.00%     99.87% # attempts to use FU when none available
system.cpu.iq.fu_full::SimdShiftAcc                 0      0.00%     99.87% # attempts to use FU when none available
system.cpu.iq.fu_full::SimdDiv                      0      0.00%     99.87% # attempts to use FU when none available
system.cpu.iq.fu_full::SimdSqrt                     0      0.00%     99.87% # attempts to use FU when none available
system.cpu.iq.fu_full::SimdFloatAdd                 0      0.00%     99.87% # attempts to use FU when none available
system.cpu.iq.fu_full::SimdFloatAlu                 0      0.00%     99.87% # attempts to use FU when none available
system.cpu.iq.fu_full::SimdFloatCmp                 0      0.00%     99.87% # attempts to use FU when none available
system.cpu.iq.fu_full::SimdFloatCvt                 0      0.00%     99.87% # attempts to use FU when none available
system.cpu.iq.fu_full::SimdFloatDiv                 0      0.00%     99.87% # attempts to use FU when none available
system.cpu.iq.fu_full::SimdFloatMisc                0      0.00%     99.87% # attempts to use FU when none available
system.cpu.iq.fu_full::SimdFloatMult                0      0.00%     99.87% # attempts to use FU when none available
system.cpu.iq.fu_full::SimdFloatMultAcc             0      0.00%     99.87% # attempts to use FU when none available
system.cpu.iq.fu_full::SimdFloatSqrt                0      0.00%     99.87% # attempts to use FU when none available
system.cpu.iq.fu_full::SimdReduceAdd                0      0.00%     99.87% # attempts to use FU when none available
system.cpu.iq.fu_full::SimdReduceAlu                0      0.00%     99.87% # attempts to use FU when none available
system.cpu.iq.fu_full::SimdReduceCmp                0      0.00%     99.87% # attempts to use FU when none available
system.cpu.iq.fu_full::SimdFloatReduceAdd            0      0.00%     99.87% # attempts to use FU when none available
system.cpu.iq.fu_full::SimdFloatReduceCmp            0      0.00%     99.87% # attempts to use FU when none available
system.cpu.iq.fu_full::SimdAes                      0      0.00%     99.87% # attempts to use FU when none available
system.cpu.iq.fu_full::SimdAesMix                   0      0.00%     99.87% # attempts to use FU when none available
system.cpu.iq.fu_full::SimdSha1Hash                 0      0.00%     99.87% # attempts to use FU when none available
system.cpu.iq.fu_full::SimdSha1Hash2                0      0.00%     99.87% # attempts to use FU when none available
system.cpu.iq.fu_full::SimdSha256Hash               0      0.00%     99.87% # attempts to use FU when none available
system.cpu.iq.fu_full::SimdSha256Hash2              0      0.00%     99.87% # attempts to use FU when none available
system.cpu.iq.fu_full::SimdShaSigma2                0      0.00%     99.87% # attempts to use FU when none available
system.cpu.iq.fu_full::SimdShaSigma3                0      0.00%     99.87% # attempts to use FU when none available
system.cpu.iq.fu_full::SimdPredAlu                  0      0.00%     99.87% # attempts to use FU when none available
system.cpu.iq.fu_full::MemRead                     42      0.06%     99.94% # attempts to use FU when none available
system.cpu.iq.fu_full::MemWrite                    22      0.03%     99.97% # attempts to use FU when none available
system.cpu.iq.fu_full::FloatMemRead                10      0.02%     99.99% # attempts to use FU when none available
system.cpu.iq.fu_full::FloatMemWrite                9      0.01%    100.00% # attempts to use FU when none available
system.cpu.iq.fu_full::IprAccess                    0      0.00%    100.00% # attempts to use FU when none available
system.cpu.iq.fu_full::InstPrefetch                 0      0.00%    100.00% # attempts to use FU when none available
system.cpu.iq.int_alu_accesses                2370316                       # Number of integer alu accesses
system.cpu.iq.int_inst_queue_reads            5446446                       # Number of integer instruction queue reads
system.cpu.iq.int_inst_queue_wakeup_accesses      2260911                       # Number of integer instruction queue wakeup accesses
system.cpu.iq.int_inst_queue_writes           2854974                       # Number of integer instruction queue writes
system.cpu.iq.iqInstsAdded                    2447931                       # Number of instructions added to the IQ (excludes non-spec)
system.cpu.iq.iqInstsIssued                   2371960                       # Number of instructions issued
system.cpu.iq.iqNonSpecInstsAdded                   3                       # Number of non-speculative instructions added to the IQ
system.cpu.iq.iqSquashedInstsExamined          463825                       # Number of squashed instructions iterated over during squash; mainly for profiling
system.cpu.iq.iqSquashedInstsIssued              3793                       # Number of squashed instructions issued
system.cpu.iq.iqSquashedNonSpecRemoved              3                       # Number of squashed non-spec instructions that were removed
system.cpu.iq.iqSquashedOperandsExamined       392070                       # Number of squashed operands that are examined and possibly removed from graph
system.cpu.iq.issued_per_cycle::samples        735919                       # Number of insts issued each cycle
system.cpu.iq.issued_per_cycle::mean         3.223126                       # Number of insts issued each cycle
system.cpu.iq.issued_per_cycle::stdev        2.610873                       # Number of insts issued each cycle
system.cpu.iq.issued_per_cycle::underflows            0      0.00%      0.00% # Number of insts issued each cycle
system.cpu.iq.issued_per_cycle::0              219159     29.78%     29.78% # Number of insts issued each cycle
system.cpu.iq.issued_per_cycle::1               20799      2.83%     32.61% # Number of insts issued each cycle
system.cpu.iq.issued_per_cycle::2               74362     10.10%     42.71% # Number of insts issued each cycle
system.cpu.iq.issued_per_cycle::3               71977      9.78%     52.49% # Number of insts issued each cycle
system.cpu.iq.issued_per_cycle::4               56181      7.63%     60.13% # Number of insts issued each cycle
system.cpu.iq.issued_per_cycle::5               96714     13.14%     73.27% # Number of insts issued each cycle
system.cpu.iq.issued_per_cycle::6              111187     15.11%     88.38% # Number of insts issued each cycle
system.cpu.iq.issued_per_cycle::7               73230      9.95%     98.33% # Number of insts issued each cycle
system.cpu.iq.issued_per_cycle::8               12310      1.67%    100.00% # Number of insts issued each cycle
system.cpu.iq.issued_per_cycle::overflows            0      0.00%    100.00% # Number of insts issued each cycle
system.cpu.iq.issued_per_cycle::min_value            0                       # Number of insts issued each cycle
system.cpu.iq.issued_per_cycle::max_value            8                       # Number of insts issued each cycle
system.cpu.iq.issued_per_cycle::total          735919                       # Number of insts issued each cycle
system.cpu.iq.rate                           3.076285                       # Inst issue rate
system.cpu.iq.vec_alu_accesses                      0                       # Number of vector alu accesses
system.cpu.iq.vec_inst_queue_reads                  0                       # Number of vector instruction queue reads
system.cpu.iq.vec_inst_queue_wakeup_accesses            0                       # Number of vector instruction queue wakeup accesses
system.cpu.iq.vec_inst_queue_writes                 0                       # Number of vector instruction queue writes
system.cpu.memDep0.conflictingLoads              7003                       # Number of conflicting loads.
system.cpu.memDep0.conflictingStores             6717                       # Number of conflicting stores.
system.cpu.memDep0.insertedLoads               212538                       # Number of loads inserted to the mem dependence unit.
system.cpu.memDep0.insertedStores              160537                       # Number of stores inserted to the mem dependence unit.
system.cpu.misc_regfile_reads                  918214                       # number of misc regfile reads
system.cpu.numCycles                           771047                       # number of cpu cycles simulated
system.cpu.numWorkItemsCompleted                    0                       # number of work items this cpu completed
system.cpu.numWorkItemsStarted                      0                       # number of work items this cpu started
system.cpu.timesIdled                             310                       # Number of times that the entire CPU went into an idle state and unscheduled itself
system.cpu.workload.numSyscalls                    10                       # Number of system calls
system.membus.snoop_filter.hit_multi_requests            0                       # Number of requests hitting in the snoop filter with multiple (>1) holders of the requested data.
system.membus.snoop_filter.hit_multi_snoops            0                       # Number of snoops hitting in the snoop filter with multiple (>1) holders of the requested data.
system.membus.snoop_filter.hit_single_requests            0                       # Number of requests hitting in the snoop filter with a single holder of the requested data.
system.membus.snoop_filter.hit_single_snoops            0                       # Number of snoops hitting in the snoop filter with a single holder of the requested data.
system.membus.snoop_filter.tot_requests          1217                       # Total number of requests made to the snoop filter.
system.membus.snoop_filter.tot_snoops               0                       # Total number of snoops made to the snoop filter.
system.tol2bus.snoop_filter.hit_multi_requests            0                       # Number of requests hitting in the snoop filter with multiple (>1) holders of the requested data.
system.tol2bus.snoop_filter.hit_multi_snoops            0                       # Number of snoops hitting in the snoop filter with multiple (>1) holders of the requested data.
system.tol2bus.snoop_filter.hit_single_requests           30                       # Number of requests hitting in the snoop filter with a single holder of the requested data.
system.tol2bus.snoop_filter.hit_single_snoops            0                       # Number of snoops hitting in the snoop filter with a single holder of the requested data.
system.tol2bus.snoop_filter.tot_requests         1259                       # Total number of requests made to the snoop filter.
system.tol2bus.snoop_filter.tot_snoops              0                       # Total number of snoops made to the snoop filter.
system.clk_domain.clock                          1000                       # Clock period in ticks
system.cpu.branchPred.lookups                  340797                       # Number of BP lookups
system.cpu.branchPred.condPredicted            288180                       # Number of conditional branches predicted
system.cpu.branchPred.condIncorrect             17584                       # Number of conditional branches incorrect
system.cpu.branchPred.BTBLookups               128976                       # Number of BTB lookups
system.cpu.branchPred.BTBHits                  127924                       # Number of BTB hits
system.cpu.branchPred.BTBHitPct             99.184344                       # BTB Hit Percentage
system.cpu.branchPred.RASUsed                    4791                       # Number of times the RAS was used to get a target.
system.cpu.branchPred.RASIncorrect                  0                       # Number of incorrect RAS predictions.
system.cpu.branchPred.indirectLookups             268                       # Number of indirect predictor lookups.
system.cpu.branchPred.indirectHits                 16                       # Number of indirect target hits.
system.cpu.branchPred.indirectMisses              252                       # Number of indirect misses.
system.cpu.branchPred.indirectMispredicted           91                       # Number of mispredicted indirect branches.
system.cpu.commit.commitSquashedInsts          463701                       # The number of squashed insts skipped by commit
system.cpu.commit.branchMispredicts             16815                       # The number of times a branch was mispredicted
system.cpu.commit.numCommittedDist::samples       669783                       # Number of insts commited each cycle
system.cpu.commit.numCommittedDist::mean     2.962307                       # Number of insts commited each cycle
system.cpu.commit.numCommittedDist::stdev     2.917414                       # Number of insts commited each cycle
system.cpu.commit.numCommittedDist::underflows            0      0.00%      0.00% # Number of insts commited each cycle
system.cpu.commit.numCommittedDist::0          194893     29.10%     29.10% # Number of insts commited each cycle
system.cpu.commit.numCommittedDist::1           86157     12.86%     41.96% # Number of insts commited each cycle
system.cpu.commit.numCommittedDist::2           78734     11.76%     53.72% # Number of insts commited each cycle
system.cpu.commit.numCommittedDist::3           76905     11.48%     65.20% # Number of insts commited each cycle
system.cpu.commit.numCommittedDist::4           59743      8.92%     74.12% # Number of insts commited each cycle
system.cpu.commit.numCommittedDist::5           21703      3.24%     77.36% # Number of insts commited each cycle
system.cpu.commit.numCommittedDist::6           22344      3.34%     80.69% # Number of insts commited each cycle
system.cpu.commit.numCommittedDist::7            6220      0.93%     81.62% # Number of insts commited each cycle
system.cpu.commit.numCommittedDist::8          123084     18.38%    100.00% # Number of insts commited each cycle
system.cpu.commit.numCommittedDist::overflows            0      0.00%    100.00% # Number of insts commited each cycle
system.cpu.commit.numCommittedDist::min_value            0                       # Number of insts commited each cycle
system.cpu.commit.numCommittedDist::max_value            8                       # Number of insts commited each cycle
system.cpu.commit.numCommittedDist::total       669783                       # Number of insts commited each cycle
system.cpu.commit.instsCommitted              1187371                       # Number of instructions committed
system.cpu.commit.opsCommitted                1984103                       # Number of ops (including micro ops) committed
system.cpu.commit.memRefs                      310779                       # Number of memory references committed
system.cpu.commit.loads                        176953                       # Number of loads committed
system.cpu.commit.amos                              0                       # Number of atomic instructions committed
system.cpu.commit.membars                           0                       # Number of memory barriers committed
system.cpu.commit.branches                     238423                       # Number of branches committed
system.cpu.commit.vector                            0                       # Number of committed Vector instructions.
system.cpu.commit.floating                      46917                       # Number of committed floating point instructions.
system.cpu.commit.integer                     1966983                       # Number of committed integer instructions.
system.cpu.commit.functionCalls                  4238                       # Number of function calls committed.
system.cpu.commit.committedInstType_0::No_OpClass        14612      0.74%      0.74% # Class of committed instruction
system.cpu.commit.committedInstType_0::IntAlu      1658196     83.57%     84.31% # Class of committed instruction
system.cpu.commit.committedInstType_0::IntMult            5      0.00%     84.31% # Class of committed instruction
system.cpu.commit.committedInstType_0::IntDiv           21      0.00%     84.31% # Class of committed instruction
system.cpu.commit.committedInstType_0::FloatAdd          135      0.01%     84.32% # Class of committed instruction
system.cpu.commit.committedInstType_0::FloatCmp            0      0.00%     84.32% # Class of committed instruction
system.cpu.commit.committedInstType_0::FloatCvt            0      0.00%     84.32% # Class of committed instruction
system.cpu.commit.committedInstType_0::FloatMult            0      0.00%     84.32% # Class of committed instruction
system.cpu.commit.committedInstType_0::FloatMultAcc            0      0.00%     84.32% # Class of committed instruction
system.cpu.commit.committedInstType_0::FloatDiv            0      0.00%     84.32% # Class of committed instruction
system.cpu.commit.committedInstType_0::FloatMisc            0      0.00%     84.32% # Class of committed instruction
system.cpu.commit.committedInstType_0::FloatSqrt            0      0.00%     84.32% # Class of committed instruction
system.cpu.commit.committedInstType_0::SimdAdd            0      0.00%     84.32% # Class of committed instruction
system.cpu.commit.committedInstType_0::SimdAddAcc            0      0.00%     84.32% # Class of committed instruction
system.cpu.commit.committedInstType_0::SimdAlu           94      0.00%     84.32% # Class of committed instruction
system.cpu.commit.committedInstType_0::SimdCmp            0      0.00%     84.32% # Class of committed instruction
system.cpu.commit.committedInstType_0::SimdCvt           46      0.00%     84.33% # Class of committed instruction
system.cpu.commit.committedInstType_0::SimdMisc          215      0.01%     84.34% # Class of committed instruction
system.cpu.commit.committedInstType_0::SimdMult            0      0.00%     84.34% # Class of committed instruction
system.cpu.commit.committedInstType_0::SimdMultAcc            0      0.00%     84.34% # Class of committed instruction
system.cpu.commit.committedInstType_0::SimdShift            0      0.00%     84.34% # Class of committed instruction
system.cpu.commit.committedInstType_0::SimdShiftAcc            0      0.00%     84.34% # Class of committed instruction
system.cpu.commit.committedInstType_0::SimdDiv            0      0.00%     84.34% # Class of committed instruction
system.cpu.commit.committedInstType_0::SimdSqrt            0      0.00%     84.34% # Class of committed instruction
system.cpu.commit.committedInstType_0::SimdFloatAdd            0      0.00%     84.34% # Class of committed instruction
system.cpu.commit.committedInstType_0::SimdFloatAlu            0      0.00%     84.34% # Class of committed instruction
system.cpu.commit.committedInstType_0::SimdFloatCmp            0      0.00%     84.34% # Class of committed instruction
system.cpu.commit.committedInstType_0::SimdFloatCvt            0      0.00%     84.34% # Class of committed instruction
system.cpu.commit.committedInstType_0::SimdFloatDiv            0      0.00%     84.34% # Class of committed instruction
system.cpu.commit.committedInstType_0::SimdFloatMisc            0      0.00%     84.34% # Class of committed instruction
system.cpu.commit.committedInstType_0::SimdFloatMult            0      0.00%     84.34% # Class of committed instruction
system.cpu.commit.committedInstType_0::SimdFloatMultAcc            0      0.00%     84.34% # Class of committed instruction
system.cpu.commit.committedInstType_0::SimdFloatSqrt            0      0.00%     84.34% # Class of committed instruction
system.cpu.commit.committedInstType_0::SimdReduceAdd            0      0.00%     84.34% # Class of committed instruction
system.cpu.commit.committedInstType_0::SimdReduceAlu            0      0.00%     84.34% # Class of committed instruction
system.cpu.commit.committedInstType_0::SimdReduceCmp            0      0.00%     84.34% # Class of committed instruction
system.cpu.commit.committedInstType_0::SimdFloatReduceAdd            0      0.00%     84.34% # Class of committed instruction
system.cpu.commit.committedInstType_0::SimdFloatReduceCmp            0      0.00%     84.34% # Class of committed instruction
system.cpu.commit.committedInstType_0::SimdAes            0      0.00%     84.34% # Class of committed instruction
system.cpu.commit.committedInstType_0::SimdAesMix            0      0.00%     84.34% # Class of committed instruction
system.cpu.commit.committedInstType_0::SimdSha1Hash            0      0.00%     84.34% # Class of committed instruction
system.cpu.commit.committedInstType_0::SimdSha1Hash2            0      0.00%     84.34% # Class of committed instruction
system.cpu.commit.committedInstType_0::SimdSha256Hash            0      0.00%     84.34% # Class of committed instruction
system.cpu.commit.committedInstType_0::SimdSha256Hash2            0      0.00%     84.34% # Class of committed instruction
system.cpu.commit.committedInstType_0::SimdShaSigma2            0      0.00%     84.34% # Class of committed instruction
system.cpu.commit.committedInstType_0::SimdShaSigma3            0      0.00%     84.34% # Class of committed instruction
system.cpu.commit.committedInstType_0::SimdPredAlu            0      0.00%     84.34% # Class of committed instruction
system.cpu.commit.committedInstType_0::MemRead       154015      7.76%     92.10% # Class of committed instruction
system.cpu.commit.committedInstType_0::MemWrite       110476      5.57%     97.67% # Class of committed instruction
system.cpu.commit.committedInstType_0::FloatMemRead        22938      1.16%     98.82% # Class of committed instruction
system.cpu.commit.committedInstType_0::FloatMemWrite        23350      1.18%    100.00% # Class of committed instruction
system.cpu.commit.committedInstType_0::IprAccess            0      0.00%    100.00% # Class of committed instruction
system.cpu.commit.committedInstType_0::InstPrefetch            0      0.00%    100.00% # Class of committed instruction
system.cpu.commit.committedInstType_0::total      1984103                       # Class of committed instruction
system.cpu.commit.commitEligibleSamples        123084                       # number cycles where commit BW limit reached
system.cpu.dcache.demand_hits::.cpu.data       317052                       # number of demand (read+write) hits
system.cpu.dcache.demand_hits::total           317052                       # number of demand (read+write) hits
system.cpu.dcache.overall_hits::.cpu.data       317052                       # number of overall hits
system.cpu.dcache.overall_hits::total          317052                       # number of overall hits
system.cpu.dcache.demand_misses::.cpu.data         1286                       # number of demand (read+write) misses
system.cpu.dcache.demand_misses::total           1286                       # number of demand (read+write) misses
system.cpu.dcache.overall_misses::.cpu.data         1286                       # number of overall misses
system.cpu.dcache.overall_misses::total          1286                       # number of overall misses
system.cpu.dcache.demand_miss_latency::.cpu.data     97449007                       # number of demand (read+write) miss cycles
system.cpu.dcache.demand_miss_latency::total     97449007                       # number of demand (read+write) miss cycles
system.cpu.dcache.overall_miss_latency::.cpu.data     97449007                       # number of overall miss cycles
system.cpu.dcache.overall_miss_latency::total     97449007                       # number of overall miss cycles
system.cpu.dcache.demand_accesses::.cpu.data       318338                       # number of demand (read+write) accesses
system.cpu.dcache.demand_accesses::total       318338                       # number of demand (read+write) accesses
system.cpu.dcache.overall_accesses::.cpu.data       318338                       # number of overall (read+write) accesses
system.cpu.dcache.overall_accesses::total       318338                       # number of overall (read+write) accesses
system.cpu.dcache.demand_miss_rate::.cpu.data     0.004040                       # miss rate for demand accesses
system.cpu.dcache.demand_miss_rate::total     0.004040                       # miss rate for demand accesses
system.cpu.dcache.overall_miss_rate::.cpu.data     0.004040                       # miss rate for overall accesses
system.cpu.dcache.overall_miss_rate::total     0.004040                       # miss rate for overall accesses
system.cpu.dcache.demand_avg_miss_latency::.cpu.data 75776.832815                       # average overall miss latency
system.cpu.dcache.demand_avg_miss_latency::total 75776.832815                       # average overall miss latency
system.cpu.dcache.overall_avg_miss_latency::.cpu.data 75776.832815                       # average overall miss latency
system.cpu.dcache.overall_avg_miss_latency::total 75776.832815                       # average overall miss latency
system.cpu.dcache.blocked_cycles::no_mshrs         1177                       # number of cycles access was blocked
system.cpu.dcache.blocked_cycles::no_targets            0                       # number of cycles access was blocked
system.cpu.dcache.blocked::no_mshrs                21                       # number of cycles access was blocked
system.cpu.dcache.blocked::no_targets               0                       # number of cycles access was blocked
system.cpu.dcache.avg_blocked_cycles::no_mshrs    56.047619                       # average number of cycles each access was blocked
system.cpu.dcache.avg_blocked_cycles::no_targets          nan                       # average number of cycles each access was blocked
system.cpu.dcache.demand_mshr_hits::.cpu.data          546                       # number of demand (read+write) MSHR hits
system.cpu.dcache.demand_mshr_hits::total          546                       # number of demand (read+write) MSHR hits
system.cpu.dcache.overall_mshr_hits::.cpu.data          546                       # number of overall MSHR hits
system.cpu.dcache.overall_mshr_hits::total          546                       # number of overall MSHR hits
system.cpu.dcache.demand_mshr_misses::.cpu.data          740                       # number of demand (read+write) MSHR misses
system.cpu.dcache.demand_mshr_misses::total          740                       # number of demand (read+write) MSHR misses
system.cpu.dcache.overall_mshr_misses::.cpu.data          740                       # number of overall MSHR misses
system.cpu.dcache.overall_mshr_misses::total          740                       # number of overall MSHR misses
system.cpu.dcache.demand_mshr_miss_latency::.cpu.data     60994311                       # number of demand (read+write) MSHR miss cycles
system.cpu.dcache.demand_mshr_miss_latency::total     60994311                       # number of demand (read+write) MSHR miss cycles
system.cpu.dcache.overall_mshr_miss_latency::.cpu.data     60994311                       # number of overall MSHR miss cycles
system.cpu.dcache.overall_mshr_miss_latency::total     60994311                       # number of overall MSHR miss cycles
system.cpu.dcache.demand_mshr_miss_rate::.cpu.data     0.002325                       # mshr miss rate for demand accesses
system.cpu.dcache.demand_mshr_miss_rate::total     0.002325                       # mshr miss rate for demand accesses
system.cpu.dcache.overall_mshr_miss_rate::.cpu.data     0.002325                       # mshr miss rate for overall accesses
system.cpu.dcache.overall_mshr_miss_rate::total     0.002325                       # mshr miss rate for overall accesses
system.cpu.dcache.demand_avg_mshr_miss_latency::.cpu.data 82424.744595                       # average overall mshr miss latency
system.cpu.dcache.demand_avg_mshr_miss_latency::total 82424.744595                       # average overall mshr miss latency
system.cpu.dcache.overall_avg_mshr_miss_latency::.cpu.data 82424.744595                       # average overall mshr miss latency
system.cpu.dcache.overall_avg_mshr_miss_latency::total 82424.744595                       # average overall mshr miss latency
system.cpu.dcache.replacements                      0                       # number of replacements
system.cpu.dcache.ReadReq_hits::.cpu.data       183578                       # number of ReadReq hits
system.cpu.dcache.ReadReq_hits::total          183578                       # number of ReadReq hits
system.cpu.dcache.ReadReq_misses::.cpu.data          924                       # number of ReadReq misses
system.cpu.dcache.ReadReq_misses::total           924                       # number of ReadReq misses
system.cpu.dcache.ReadReq_miss_latency::.cpu.data     67858688                       # number of ReadReq miss cycles
system.cpu.dcache.ReadReq_miss_latency::total     67858688                       # number of ReadReq miss cycles
system.cpu.dcache.ReadReq_accesses::.cpu.data       184502                       # number of ReadReq accesses(hits+misses)
system.cpu.dcache.ReadReq_accesses::total       184502                       # number of ReadReq accesses(hits+misses)
system.cpu.dcache.ReadReq_miss_rate::.cpu.data     0.005008                       # miss rate for ReadReq accesses
system.cpu.dcache.ReadReq_miss_rate::total     0.005008                       # miss rate for ReadReq accesses
system.cpu.dcache.ReadReq_avg_miss_latency::.cpu.data 73440.138528                       # average ReadReq miss latency
system.cpu.dcache.ReadReq_avg_miss_latency::total 73440.138528                       # average ReadReq miss latency
system.cpu.dcache.ReadReq_mshr_hits::.cpu.data          545                       # number of ReadReq MSHR hits
system.cpu.dcache.ReadReq_mshr_hits::total          545                       # number of ReadReq MSHR hits
system.cpu.dcache.ReadReq_mshr_misses::.cpu.data          379                       # number of ReadReq MSHR misses
system.cpu.dcache.ReadReq_mshr_misses::total          379                       # number of ReadReq MSHR misses
system.cpu.dcache.ReadReq_mshr_miss_latency::.cpu.data     31883264                       # number of ReadReq MSHR miss cycles
system.cpu.dcache.ReadReq_mshr_miss_latency::total     31883264                       # number of ReadReq MSHR miss cycles
system.cpu.dcache.ReadReq_mshr_miss_rate::.cpu.data     0.002054                       # mshr miss rate for ReadReq accesses
system.cpu.dcache.ReadReq_mshr_miss_rate::total     0.002054                       # mshr miss rate for ReadReq accesses
system.cpu.dcache.ReadReq_avg_mshr_miss_latency::.cpu.data 84124.707124                       # average ReadReq mshr miss latency
system.cpu.dcache.ReadReq_avg_mshr_miss_latency::total 84124.707124                       # average ReadReq mshr miss latency
system.cpu.dcache.WriteReq_hits::.cpu.data       133474                       # number of WriteReq hits
system.cpu.dcache.WriteReq_hits::total         133474                       # number of WriteReq hits
system.cpu.dcache.WriteReq_misses::.cpu.data          362                       # number of WriteReq misses
system.cpu.dcache.WriteReq_misses::total          362                       # number of WriteReq misses
system.cpu.dcache.WriteReq_miss_latency::.cpu.data     29590319                       # number of WriteReq miss cycles
system.cpu.dcache.WriteReq_miss_latency::total     29590319                       # number of WriteReq miss cycles
system.cpu.dcache.WriteReq_accesses::.cpu.data       133836                       # number of WriteReq accesses(hits+misses)
system.cpu.dcache.WriteReq_accesses::total       133836                       # number of WriteReq accesses(hits+misses)
system.cpu.dcache.WriteReq_miss_rate::.cpu.data     0.002705                       # miss rate for WriteReq accesses
system.cpu.dcache.WriteReq_miss_rate::total     0.002705                       # miss rate for WriteReq accesses
system.cpu.dcache.WriteReq_avg_miss_latency::.cpu.data 81741.212707                       # average WriteReq miss latency
system.cpu.dcache.WriteReq_avg_miss_latency::total 81741.212707                       # average WriteReq miss latency
system.cpu.dcache.WriteReq_mshr_hits::.cpu.data            1                       # number of WriteReq MSHR hits
system.cpu.dcache.WriteReq_mshr_hits::total            1                       # number of WriteReq MSHR hits
system.cpu.dcache.WriteReq_mshr_misses::.cpu.data          361                       # number of WriteReq MSHR misses
system.cpu.dcache.WriteReq_mshr_misses::total          361                       # number of WriteReq MSHR misses
system.cpu.dcache.WriteReq_mshr_miss_latency::.cpu.data     29111047                       # number of WriteReq MSHR miss cycles
system.cpu.dcache.WriteReq_mshr_miss_latency::total     29111047                       # number of WriteReq MSHR miss cycles
system.cpu.dcache.WriteReq_mshr_miss_rate::.cpu.data     0.002697                       # mshr miss rate for WriteReq accesses
system.cpu.dcache.WriteReq_mshr_miss_rate::total     0.002697                       # mshr miss rate for WriteReq accesses
system.cpu.dcache.WriteReq_avg_mshr_miss_latency::.cpu.data 80640.019391                       # average WriteReq mshr miss latency
system.cpu.dcache.WriteReq_avg_mshr_miss_latency::total 80640.019391                       # average WriteReq mshr miss latency
system.cpu.dcache.power_state.pwrStateResidencyTicks::UNDEFINED    428701576                       # Cumulative time (in ticks) in various power states
system.cpu.dcache.tags.tagsinuse           460.075764                       # Cycle average of tags in use
system.cpu.dcache.tags.total_refs              317792                       # Total number of references to valid blocks.
system.cpu.dcache.tags.sampled_refs               740                       # Sample count of references to valid blocks.
system.cpu.dcache.tags.avg_refs            429.448649                       # Average number of references to valid blocks.
system.cpu.dcache.tags.warmup_cycle            181812                       # Cycle when the warmup percentage was hit.
system.cpu.dcache.tags.occ_blocks::.cpu.data   460.075764                       # Average occupied blocks per requestor
system.cpu.dcache.tags.occ_percent::.cpu.data     0.449293                       # Average percentage of cache occupancy
system.cpu.dcache.tags.occ_percent::total     0.449293                       # Average percentage of cache occupancy
system.cpu.dcache.tags.occ_task_id_blocks::1024          740                       # Occupied blocks per task id
system.cpu.dcache.tags.age_task_id_blocks_1024::0           17                       # Occupied blocks per task id
system.cpu.dcache.tags.age_task_id_blocks_1024::1           99                       # Occupied blocks per task id
system.cpu.dcache.tags.age_task_id_blocks_1024::2          624                       # Occupied blocks per task id
system.cpu.dcache.tags.occ_task_id_percent::1024     0.722656                       # Percentage of cache occupancy per task id
system.cpu.dcache.tags.tag_accesses           5094148                       # Number of tag accesses
system.cpu.dcache.tags.data_accesses          5094148                       # Number of data accesses
system.cpu.dcache.tags.power_state.pwrStateResidencyTicks::UNDEFINED    428701576                       # Cumulative time (in ticks) in various power states
system.cpu.decode.idleCycles                   200882                       # Number of cycles decode is idle
system.cpu.decode.blockedCycles                101502                       # Number of cycles decode is blocked
system.cpu.decode.runCycles                    390860                       # Number of cycles decode is running
system.cpu.decode.unblockCycles                 25830                       # Number of cycles decode is unblocking
system.cpu.decode.squashCycles                  16845                       # Number of cycles decode is squashing
system.cpu.decode.branchResolved               123844                       # Number of times decode resolved a  branch
system.cpu.decode.branchMispred                   913                       # Number of times decode detected a branch misprediction
system.cpu.decode.decodedInsts                2662727                       # Number of instructions handled by decode
system.cpu.decode.squashedInsts                  4333                       # Number of squashed instructions handled by decode
system.cpu.dtb.rdAccesses                      204275                       # TLB accesses on read requests
system.cpu.dtb.wrAccesses                      149198                       # TLB accesses on write requests
system.cpu.dtb.rdMisses                            81                       # TLB misses on read requests
system.cpu.dtb.wrMisses                            21                       # TLB misses on write requests
system.cpu.dtb.walker.power_state.pwrStateResidencyTicks::UNDEFINED    428701576                       # Cumulative time (in ticks) in various power states
system.cpu.dtb_walker_cache.blocked_cycles::no_mshrs            0                       # number of cycles access was blocked
system.cpu.dtb_walker_cache.blocked_cycles::no_targets            0                       # number of cycles access was blocked
system.cpu.dtb_walker_cache.blocked::no_mshrs            0                       # number of cycles access was blocked
system.cpu.dtb_walker_cache.blocked::no_targets            0                       # number of cycles access was blocked
system.cpu.dtb_walker_cache.avg_blocked_cycles::no_mshrs          nan                       # average number of cycles each access was blocked
system.cpu.dtb_walker_cache.avg_blocked_cycles::no_targets          nan                       # average number of cycles each access was blocked
system.cpu.dtb_walker_cache.replacements            0                       # number of replacements
system.cpu.dtb_walker_cache.power_state.pwrStateResidencyTicks::UNDEFINED    428701576                       # Cumulative time (in ticks) in various power states
system.cpu.dtb_walker_cache.tags.tagsinuse            0                       # Cycle average of tags in use
system.cpu.dtb_walker_cache.tags.total_refs            0                       # Total number of references to valid blocks.
system.cpu.dtb_walker_cache.tags.sampled_refs            0                       # Sample count of references to valid blocks.
system.cpu.dtb_walker_cache.tags.avg_refs          nan                       # Average number of references to valid blocks.
system.cpu.dtb_walker_cache.tags.warmup_cycle            0                       # Cycle when the warmup percentage was hit.
system.cpu.dtb_walker_cache.tags.tag_accesses            0                       # Number of tag accesses
system.cpu.dtb_walker_cache.tags.data_accesses            0                       # Number of data accesses
system.cpu.dtb_walker_cache.tags.power_state.pwrStateResidencyTicks::UNDEFINED    428701576                       # Cumulative time (in ticks) in various power states
system.cpu.fetch.icacheStallCycles             210757                       # Number of cycles fetch is stalled on an Icache miss
system.cpu.fetch.insts                        1649781                       # Number of instructions fetch has processed
system.cpu.fetch.branches                      340797                       # Number of branches that fetch encountered
system.cpu.fetch.predictedBranches             132731                       # Number of branches that fetch has predicted taken
system.cpu.fetch.cycles                        506400                       # Number of cycles fetch has run and was not squashing or blocked
system.cpu.fetch.squashCycles                   35486                       # Number of cycles fetch has spent squashing
system.cpu.fetch.miscStallCycles                  143                       # Number of cycles fetch has spent waiting on interrupts,or bad addresses, or out of MSHRs
system.cpu.fetch.pendingTrapStallCycles           841                       # Number of stall cycles due to pending traps
system.cpu.fetch.pendingQuiesceStallCycles            2                       # Number of stall cycles due to pending quiesce instructions
system.cpu.fetch.icacheWaitRetryStallCycles           33                       # Number of stall cycles due to full MSHR
system.cpu.fetch.cacheLines                    188924                       # Number of cache lines fetched
system.cpu.fetch.icacheSquashes                  4666                       # Number of outstanding Icache misses that were squashed
system.cpu.fetch.nisnDist::samples             735919                       # Number of instructions fetched each cycle (Total)
system.cpu.fetch.nisnDist::mean              3.730927                       # Number of instructions fetched each cycle (Total)
system.cpu.fetch.nisnDist::stdev             3.640202                       # Number of instructions fetched each cycle (Total)
system.cpu.fetch.nisnDist::underflows               0      0.00%      0.00% # Number of instructions fetched each cycle (Total)
system.cpu.fetch.nisnDist::0                   288264     39.17%     39.17% # Number of instructions fetched each cycle (Total)
system.cpu.fetch.nisnDist::1                    59846      8.13%     47.30% # Number of instructions fetched each cycle (Total)
system.cpu.fetch.nisnDist::2                    16541      2.25%     49.55% # Number of instructions fetched each cycle (Total)
system.cpu.fetch.nisnDist::3                    18144      2.47%     52.02% # Number of instructions fetched each cycle (Total)
system.cpu.fetch.nisnDist::4                    30713      4.17%     56.19% # Number of instructions fetched each cycle (Total)
system.cpu.fetch.nisnDist::5                    19275      2.62%     58.81% # Number of instructions fetched each cycle (Total)
system.cpu.fetch.nisnDist::6                    11245      1.53%     60.34% # Number of instructions fetched each cycle (Total)
system.cpu.fetch.nisnDist::7                    23525      3.20%     63.53% # Number of instructions fetched each cycle (Total)
system.cpu.fetch.nisnDist::8                   268366     36.47%    100.00% # Number of instructions fetched each cycle (Total)
system.cpu.fetch.nisnDist::overflows                0      0.00%    100.00% # Number of instructions fetched each cycle (Total)
system.cpu.fetch.nisnDist::min_value                0                       # Number of instructions fetched each cycle (Total)
system.cpu.fetch.nisnDist::max_value                8                       # Number of instructions fetched each cycle (Total)
system.cpu.fetch.nisnDist::total               735919                       # Number of instructions fetched each cycle (Total)
system.cpu.fetch.branchRate                  0.441993                       # Number of branch fetches per cycle
system.cpu.fetch.rate                        2.139663                       # Number of inst fetches per cycle
system.cpu.icache.demand_hits::.cpu.inst       188306                       # number of demand (read+write) hits
system.cpu.icache.demand_hits::total           188306                       # number of demand (read+write) hits
system.cpu.icache.overall_hits::.cpu.inst       188306                       # number of overall hits
system.cpu.icache.overall_hits::total          188306                       # number of overall hits
system.cpu.icache.demand_misses::.cpu.inst          618                       # number of demand (read+write) misses
system.cpu.icache.demand_misses::total            618                       # number of demand (read+write) misses
system.cpu.icache.overall_misses::.cpu.inst          618                       # number of overall misses
system.cpu.icache.overall_misses::total           618                       # number of overall misses
system.cpu.icache.demand_miss_latency::.cpu.inst     48136811                       # number of demand (read+write) miss cycles
system.cpu.icache.demand_miss_latency::total     48136811                       # number of demand (read+write) miss cycles
system.cpu.icache.overall_miss_latency::.cpu.inst     48136811                       # number of overall miss cycles
system.cpu.icache.overall_miss_latency::total     48136811                       # number of overall miss cycles
system.cpu.icache.demand_accesses::.cpu.inst       188924                       # number of demand (read+write) accesses
system.cpu.icache.demand_accesses::total       188924                       # number of demand (read+write) accesses
system.cpu.icache.overall_accesses::.cpu.inst       188924                       # number of overall (read+write) accesses
system.cpu.icache.overall_accesses::total       188924                       # number of overall (read+write) accesses
system.cpu.icache.demand_miss_rate::.cpu.inst     0.003271                       # miss rate for demand accesses
system.cpu.icache.demand_miss_rate::total     0.003271                       # miss rate for demand accesses
system.cpu.icache.overall_miss_rate::.cpu.inst     0.003271                       # miss rate for overall accesses
system.cpu.icache.overall_miss_rate::total     0.003271                       # miss rate for overall accesses
system.cpu.icache.demand_avg_miss_latency::.cpu.inst 77891.279935                       # average overall miss latency
system.cpu.icache.demand_avg_miss_latency::total 77891.279935                       # average overall miss latency
system.cpu.icache.overall_avg_miss_latency::.cpu.inst 77891.279935                       # average overall miss latency
system.cpu.icache.overall_avg_miss_latency::total 77891.279935                       # average overall miss latency
system.cpu.icache.blocked_cycles::no_mshrs          334                       # number of cycles access was blocked
system.cpu.icache.blocked_cycles::no_targets            0                       # number of cycles access was blocked
system.cpu.icache.blocked::no_mshrs                 5                       # number of cycles access was blocked
system.cpu.icache.blocked::no_targets               0                       # number of cycles access was blocked
system.cpu.icache.avg_blocked_cycles::no_mshrs    66.800000                       # average number of cycles each access was blocked
system.cpu.icache.avg_blocked_cycles::no_targets          nan                       # average number of cycles each access was blocked
system.cpu.icache.writebacks::.writebacks           30                       # number of writebacks
system.cpu.icache.writebacks::total                30                       # number of writebacks
system.cpu.icache.demand_mshr_hits::.cpu.inst          129                       # number of demand (read+write) MSHR hits
system.cpu.icache.demand_mshr_hits::total          129                       # number of demand (read+write) MSHR hits
system.cpu.icache.overall_mshr_hits::.cpu.inst          129                       # number of overall MSHR hits
system.cpu.icache.overall_mshr_hits::total          129                       # number of overall MSHR hits
system.cpu.icache.demand_mshr_misses::.cpu.inst          489                       # number of demand (read+write) MSHR misses
system.cpu.icache.demand_mshr_misses::total          489                       # number of demand (read+write) MSHR misses
system.cpu.icache.overall_mshr_misses::.cpu.inst          489                       # number of overall MSHR misses
system.cpu.icache.overall_mshr_misses::total          489                       # number of overall MSHR misses
system.cpu.icache.demand_mshr_miss_latency::.cpu.inst     39805707                       # number of demand (read+write) MSHR miss cycles
system.cpu.icache.demand_mshr_miss_latency::total     39805707                       # number of demand (read+write) MSHR miss cycles
system.cpu.icache.overall_mshr_miss_latency::.cpu.inst     39805707                       # number of overall MSHR miss cycles
system.cpu.icache.overall_mshr_miss_latency::total     39805707                       # number of overall MSHR miss cycles
system.cpu.icache.demand_mshr_miss_rate::.cpu.inst     0.002588                       # mshr miss rate for demand accesses
system.cpu.icache.demand_mshr_miss_rate::total     0.002588                       # mshr miss rate for demand accesses
system.cpu.icache.overall_mshr_miss_rate::.cpu.inst     0.002588                       # mshr miss rate for overall accesses
system.cpu.icache.overall_mshr_miss_rate::total     0.002588                       # mshr miss rate for overall accesses
system.cpu.icache.demand_avg_mshr_miss_latency::.cpu.inst 81402.263804                       # average overall mshr miss latency
system.cpu.icache.demand_avg_mshr_miss_latency::total 81402.263804                       # average overall mshr miss latency
system.cpu.icache.overall_avg_mshr_miss_latency::.cpu.inst 81402.263804                       # average overall mshr miss latency
system.cpu.icache.overall_avg_mshr_miss_latency::total 81402.263804                       # average overall mshr miss latency
system.cpu.icache.replacements                     30                       # number of replacements
system.cpu.icache.ReadReq_hits::.cpu.inst       188306                       # number of ReadReq hits
system.cpu.icache.ReadReq_hits::total          188306                       # number of ReadReq hits
system.cpu.icache.ReadReq_misses::.cpu.inst          618                       # number of ReadReq misses
system.cpu.icache.ReadReq_misses::total           618                       # number of ReadReq misses
system.cpu.icache.ReadReq_miss_latency::.cpu.inst     48136811                       # number of ReadReq miss cycles
system.cpu.icache.ReadReq_miss_latency::total     48136811                       # number of ReadReq miss cycles
system.cpu.icache.ReadReq_accesses::.cpu.inst       188924                       # number of ReadReq accesses(hits+misses)
system.cpu.icache.ReadReq_accesses::total       188924                       # number of ReadReq accesses(hits+misses)
system.cpu.icache.ReadReq_miss_rate::.cpu.inst     0.003271                       # miss rate for ReadReq accesses
system.cpu.icache.ReadReq_miss_rate::total     0.003271                       # miss rate for ReadReq accesses
system.cpu.icache.ReadReq_avg_miss_latency::.cpu.inst 77891.279935                       # average ReadReq miss latency
system.cpu.icache.ReadReq_avg_miss_latency::total 77891.279935                       # average ReadReq miss latency
system.cpu.icache.ReadReq_mshr_hits::.cpu.inst          129                       # number of ReadReq MSHR hits
system.cpu.icache.ReadReq_mshr_hits::total          129                       # number of ReadReq MSHR hits
system.cpu.icache.ReadReq_mshr_misses::.cpu.inst          489                       # number of ReadReq MSHR misses
system.cpu.icache.ReadReq_mshr_misses::total          489                       # number of ReadReq MSHR misses
system.cpu.icache.ReadReq_mshr_miss_latency::.cpu.inst     39805707                       # number of ReadReq MSHR miss cycles
system.cpu.icache.ReadReq_mshr_miss_latency::total     39805707                       # number of ReadReq MSHR miss cycles
system.cpu.icache.ReadReq_mshr_miss_rate::.cpu.inst     0.002588                       # mshr miss rate for ReadReq accesses
system.cpu.icache.ReadReq_mshr_miss_rate::total     0.002588                       # mshr miss rate for ReadReq accesses
system.cpu.icache.ReadReq_avg_mshr_miss_latency::.cpu.inst 81402.263804                       # average ReadReq mshr miss latency
system.cpu.icache.ReadReq_avg_mshr_miss_latency::total 81402.263804                       # average ReadReq mshr miss latency
system.cpu.icache.power_state.pwrStateResidencyTicks::UNDEFINED    428701576                       # Cumulative time (in ticks) in various power states
system.cpu.icache.tags.tagsinuse           403.105712                       # Cycle average of tags in use
system.cpu.icache.tags.total_refs              188794                       # Total number of references to valid blocks.
system.cpu.icache.tags.sampled_refs               488                       # Sample count of references to valid blocks.
system.cpu.icache.tags.avg_refs            386.872951                       # Average number of references to valid blocks.
system.cpu.icache.tags.warmup_cycle             88960                       # Cycle when the warmup percentage was hit.
system.cpu.icache.tags.occ_blocks::.cpu.inst   403.105712                       # Average occupied blocks per requestor
system.cpu.icache.tags.occ_percent::.cpu.inst     0.393658                       # Average percentage of cache occupancy
system.cpu.icache.tags.occ_percent::total     0.393658                       # Average percentage of cache occupancy
system.cpu.icache.tags.occ_task_id_blocks::1024          458                       # Occupied blocks per task id
system.cpu.icache.tags.age_task_id_blocks_1024::0           39                       # Occupied blocks per task id
system.cpu.icache.tags.age_task_id_blocks_1024::2          419                       # Occupied blocks per task id
system.cpu.icache.tags.occ_task_id_percent::1024     0.447266                       # Percentage of cache occupancy per task id
system.cpu.icache.tags.tag_accesses            378336                       # Number of tag accesses
system.cpu.icache.tags.data_accesses           378336                       # Number of data accesses
system.cpu.icache.tags.power_state.pwrStateResidencyTicks::UNDEFINED    428701576                       # Cumulative time (in ticks) in various power states
system.cpu.interrupts.clk_domain.clock           8896                       # Clock period in ticks
system.cpu.itb.rdAccesses                           0                       # TLB accesses on read requests
system.cpu.itb.wrAccesses                      189072                       # TLB accesses on write requests
system.cpu.itb.rdMisses                             0                       # TLB misses on read requests
system.cpu.itb.wrMisses                           192                       # TLB misses on write requests
system.cpu.itb.walker.power_state.pwrStateResidencyTicks::UNDEFINED    428701576                       # Cumulative time (in ticks) in various power states
system.cpu.itb_walker_cache.blocked_cycles::no_mshrs            0                       # number of cycles access was blocked
system.cpu.itb_walker_cache.blocked_cycles::no_targets            0                       # number of cycles access was blocked
system.cpu.itb_walker_cache.blocked::no_mshrs            0                       # number of cycles access was blocked
system.cpu.itb_walker_cache.blocked::no_targets            0                       # number of cycles access was blocked
system.cpu.itb_walker_cache.avg_blocked_cycles::no_mshrs          nan                       # average number of cycles each access was blocked
system.cpu.itb_walker_cache.avg_blocked_cycles::no_targets          nan                       # average number of cycles each access was blocked
system.cpu.itb_walker_cache.replacements            0                       # number of replacements
system.cpu.itb_walker_cache.power_state.pwrStateResidencyTicks::UNDEFINED    428701576                       # Cumulative time (in ticks) in various power states
system.cpu.itb_walker_cache.tags.tagsinuse            0                       # Cycle average of tags in use
system.cpu.itb_walker_cache.tags.total_refs            0                       # Total number of references to valid blocks.
system.cpu.itb_walker_cache.tags.sampled_refs            0                       # Sample count of references to valid blocks.
system.cpu.itb_walker_cache.tags.avg_refs          nan                       # Average number of references to valid blocks.
system.cpu.itb_walker_cache.tags.warmup_cycle            0                       # Cycle when the warmup percentage was hit.
system.cpu.itb_walker_cache.tags.tag_accesses            0                       # Number of tag accesses
system.cpu.itb_walker_cache.tags.data_accesses            0                       # Number of data accesses
system.cpu.itb_walker_cache.tags.power_state.pwrStateResidencyTicks::UNDEFINED    428701576                       # Cumulative time (in ticks) in various power states
system.cpu.lsq0.forwLoads                       19015                       # Number of loads that had data forwarded from stores
system.cpu.lsq0.squashedLoads                   35585                       # Number of loads squashed
system.cpu.lsq0.ignoredResponses                   40                       # Number of memory responses ignored because the instruction is squashed
system.cpu.lsq0.memOrderViolation                  19                       # Number of memory ordering violations
system.cpu.lsq0.squashedStores                  26711                       # Number of stores squashed
system.cpu.lsq0.rescheduledLoads                  689                       # Number of loads that were rescheduled
system.cpu.lsq0.blockedByCache                     18                       # Number of times an access to memory failed due to the cache being blocked
system.cpu.power_state.pwrStateResidencyTicks::ON    428701576                       # Cumulative time (in ticks) in various power states
system.cpu.rename.squashCycles                  16845                       # Number of cycles rename is squashing
system.cpu.rename.idleCycles                   213976                       # Number of cycles rename is idle
system.cpu.rename.blockCycles                   76518                       # Number of cycles rename is blocking
system.cpu.rename.serializeStallCycles             34                       # count of cycles rename stalledfor serializing inst
system.cpu.rename.runCycles                    399074                       # Number of cycles rename is running
system.cpu.rename.unblockCycles                 29472                       # Number of cycles rename is unblocking
system.cpu.rename.renamedInsts                2604401                       # Number of instructions processed by rename
system.cpu.rename.ROBFullEvents                   337                       # Number of times rename has blocked due to ROB full
system.cpu.rename.IQFullEvents                   1573                       # Number of times rename has blocked due to IQ full
system.cpu.rename.LQFullEvents                      1                       # Number of times rename has blocked due to LQ full
system.cpu.rename.SQFullEvents                  21404                       # Number of times rename has blocked due to SQ full
system.cpu.rename.renamedOperands             3162249                       # Number of destination operands rename has renamed
system.cpu.rename.lookups                     6432439                       # Number of register rename lookups that rename has made
system.cpu.rename.intLookups                  3744352                       # Number of integer rename lookups
system.cpu.rename.fpLookups                     27562                       # Number of floating rename lookups
system.cpu.rename.committedMaps               2380871                       # Number of HB maps that are committed
system.cpu.rename.undoneMaps                   781372                       # Number of HB maps that are undone due to squashing
system.cpu.rename.serializing                       3                       # count of serializing insts renamed
system.cpu.rename.tempSerializing                   3                       # count of temporary serializing insts renamed
system.cpu.rename.skidInsts                     69580                       # count of insts added to the skid buffer
system.cpu.rob.reads                          2994347                       # The number of ROB reads
system.cpu.rob.writes                         4962142                       # The number of ROB writes
system.cpu.thread_0.numInsts                  1187371                       # Number of Instructions committed
system.cpu.thread_0.numOps                    1984103                       # Number of Ops committed
system.cpu.thread_0.numMemRefs                      0                       # Number of Memory References
system.cpu_clk_domain.clock                       556                       # Clock period in ticks
system.cpu_voltage_domain.voltage                   1                       # Voltage in Volts
system.l2.demand_hits::.cpu.inst                   11                       # number of demand (read+write) hits
system.l2.demand_hits::total                       11                       # number of demand (read+write) hits
system.l2.overall_hits::.cpu.inst                  11                       # number of overall hits
system.l2.overall_hits::total                      11                       # number of overall hits
system.l2.demand_misses::.cpu.inst                478                       # number of demand (read+write) misses
system.l2.demand_misses::.cpu.data                740                       # number of demand (read+write) misses
system.l2.demand_misses::total                   1218                       # number of demand (read+write) misses
system.l2.overall_misses::.cpu.inst               478                       # number of overall misses
system.l2.overall_misses::.cpu.data               740                       # number of overall misses
system.l2.overall_misses::total                  1218                       # number of overall misses
system.l2.demand_miss_latency::.cpu.inst     38858840                       # number of demand (read+write) miss cycles
system.l2.demand_miss_latency::.cpu.data     59753320                       # number of demand (read+write) miss cycles
system.l2.demand_miss_latency::total         98612160                       # number of demand (read+write) miss cycles
system.l2.overall_miss_latency::.cpu.inst     38858840                       # number of overall miss cycles
system.l2.overall_miss_latency::.cpu.data     59753320                       # number of overall miss cycles
system.l2.overall_miss_latency::total        98612160                       # number of overall miss cycles
system.l2.demand_accesses::.cpu.inst              489                       # number of demand (read+write) accesses
system.l2.demand_accesses::.cpu.data              740                       # number of demand (read+write) accesses
system.l2.demand_accesses::total                 1229                       # number of demand (read+write) accesses
system.l2.overall_accesses::.cpu.inst             489                       # number of overall (read+write) accesses
system.l2.overall_accesses::.cpu.data             740                       # number of overall (read+write) accesses
system.l2.overall_accesses::total                1229                       # number of overall (read+write) accesses
system.l2.demand_miss_rate::.cpu.inst        0.977505                       # miss rate for demand accesses
system.l2.demand_miss_rate::.cpu.data               1                       # miss rate for demand accesses
system.l2.demand_miss_rate::total            0.991050                       # miss rate for demand accesses
system.l2.overall_miss_rate::.cpu.inst       0.977505                       # miss rate for overall accesses
system.l2.overall_miss_rate::.cpu.data              1                       # miss rate for overall accesses
system.l2.overall_miss_rate::total           0.991050                       # miss rate for overall accesses
system.l2.demand_avg_miss_latency::.cpu.inst 81294.644351                       # average overall miss latency
system.l2.demand_avg_miss_latency::.cpu.data 80747.729730                       # average overall miss latency
system.l2.demand_avg_miss_latency::total 80962.364532                       # average overall miss latency
system.l2.overall_avg_miss_latency::.cpu.inst 81294.644351                       # average overall miss latency
system.l2.overall_avg_miss_latency::.cpu.data 80747.729730                       # average overall miss latency
system.l2.overall_avg_miss_latency::total 80962.364532                       # average overall miss latency
system.l2.blocked_cycles::no_mshrs                  0                       # number of cycles access was blocked
system.l2.blocked_cycles::no_targets                0                       # number of cycles access was blocked
system.l2.blocked::no_mshrs                         0                       # number of cycles access was blocked
system.l2.blocked::no_targets                       0                       # number of cycles access was blocked
system.l2.avg_blocked_cycles::no_mshrs            nan                       # average number of cycles each access was blocked
system.l2.avg_blocked_cycles::no_targets          nan                       # average number of cycles each access was blocked
system.l2.demand_mshr_misses::.cpu.inst           478                       # number of demand (read+write) MSHR misses
[...]
system.mem_ctrls.dram.bw_inst_read::.cpu.inst     71210375                       # Instruction read bandwidth from this memory (bytes/s)
system.mem_ctrls.dram.bw_inst_read::total     71210375                       # Instruction read bandwidth from this memory (bytes/s)
system.mem_ctrls.dram.bw_total::.cpu.inst     71210375                       # Total bandwidth to/from this memory (bytes/s)
system.mem_ctrls.dram.bw_total::.cpu.data    110473118                       # Total bandwidth to/from this memory (bytes/s)
system.mem_ctrls.dram.bw_total::total       181683494                       # Total bandwidth to/from this memory (bytes/s)
system.mem_ctrls.dram.readBursts                 1217                       # Number of DRAM read bursts
system.mem_ctrls.dram.writeBursts                   0                       # Number of DRAM write bursts
system.mem_ctrls.dram.perBankRdBursts::0          119                       # Per bank write bursts
system.mem_ctrls.dram.perBankRdBursts::1          127                       # Per bank write bursts
system.mem_ctrls.dram.perBankRdBursts::2          138                       # Per bank write bursts
system.mem_ctrls.dram.perBankRdBursts::3          184                       # Per bank write bursts
system.mem_ctrls.dram.perBankRdBursts::4           32                       # Per bank write bursts
system.mem_ctrls.dram.perBankRdBursts::5          125                       # Per bank write bursts
system.mem_ctrls.dram.perBankRdBursts::6          137                       # Per bank write bursts
system.mem_ctrls.dram.perBankRdBursts::7           47                       # Per bank write bursts
system.mem_ctrls.dram.perBankRdBursts::8           88                       # Per bank write bursts
system.mem_ctrls.dram.perBankRdBursts::9           64                       # Per bank write bursts
system.mem_ctrls.dram.perBankRdBursts::10           31                       # Per bank write bursts
system.mem_ctrls.dram.perBankRdBursts::11           11                       # Per bank write bursts
system.mem_ctrls.dram.perBankRdBursts::12           11                       # Per bank write bursts
system.mem_ctrls.dram.perBankRdBursts::13           36                       # Per bank write bursts
system.mem_ctrls.dram.perBankRdBursts::14           40                       # Per bank write bursts
system.mem_ctrls.dram.perBankRdBursts::15           27                       # Per bank write bursts
system.mem_ctrls.dram.perBankWrBursts::0            0                       # Per bank write bursts
system.mem_ctrls.dram.perBankWrBursts::1            0                       # Per bank write bursts
system.mem_ctrls.dram.perBankWrBursts::2            0                       # Per bank write bursts
system.mem_ctrls.dram.perBankWrBursts::3            0                       # Per bank write bursts
system.mem_ctrls.dram.perBankWrBursts::4            0                       # Per bank write bursts
system.mem_ctrls.dram.perBankWrBursts::5            0                       # Per bank write bursts
system.mem_ctrls.dram.perBankWrBursts::6            0                       # Per bank write bursts
system.mem_ctrls.dram.perBankWrBursts::7            0                       # Per bank write bursts
system.mem_ctrls.dram.perBankWrBursts::8            0                       # Per bank write bursts
system.mem_ctrls.dram.perBankWrBursts::9            0                       # Per bank write bursts
system.mem_ctrls.dram.perBankWrBursts::10            0                       # Per bank write bursts
system.mem_ctrls.dram.perBankWrBursts::11            0                       # Per bank write bursts
system.mem_ctrls.dram.perBankWrBursts::12            0                       # Per bank write bursts
system.mem_ctrls.dram.perBankWrBursts::13            0                       # Per bank write bursts
system.mem_ctrls.dram.perBankWrBursts::14            0                       # Per bank write bursts
system.mem_ctrls.dram.perBankWrBursts::15            0                       # Per bank write bursts
system.mem_ctrls.dram.totQLat                10150932                       # Total ticks spent queuing
system.mem_ctrls.dram.totBusLat               6085000                       # Total ticks spent in databus transfers
system.mem_ctrls.dram.totMemAccLat           32969682                       # Total ticks spent from burst creation until serviced by the DRAM
system.mem_ctrls.dram.avgQLat                 8340.95                       # Average queueing delay per DRAM burst
system.mem_ctrls.dram.avgBusLat               5000.00                       # Average bus latency per DRAM burst
system.mem_ctrls.dram.avgMemAccLat           27090.95                       # Average memory access latency per DRAM burst
system.mem_ctrls.dram.readRowHits                 975                       # Number of row buffer hits during reads
system.mem_ctrls.dram.writeRowHits                  0                       # Number of row buffer hits during writes
system.mem_ctrls.dram.readRowHitRate            80.12                       # Row buffer hit rate for reads
system.mem_ctrls.dram.writeRowHitRate             nan                       # Row buffer hit rate for writes
system.mem_ctrls.dram.bytesPerActivate::samples          240                       # Bytes accessed per row activation
system.mem_ctrls.dram.bytesPerActivate::mean          324                       # Bytes accessed per row activation
system.mem_ctrls.dram.bytesPerActivate::gmean   237.163890                       # Bytes accessed per row activation
system.mem_ctrls.dram.bytesPerActivate::stdev   248.529062                       # Bytes accessed per row activation
system.mem_ctrls.dram.bytesPerActivate::0-127           50     20.83%     20.83% # Bytes accessed per row activation
system.mem_ctrls.dram.bytesPerActivate::128-255           49     20.42%     41.25% # Bytes accessed per row activation
system.mem_ctrls.dram.bytesPerActivate::256-383           38     15.83%     57.08% # Bytes accessed per row activation
system.mem_ctrls.dram.bytesPerActivate::384-511           63     26.25%     83.33% # Bytes accessed per row activation
system.mem_ctrls.dram.bytesPerActivate::512-639           16      6.67%     90.00% # Bytes accessed per row activation
system.mem_ctrls.dram.bytesPerActivate::640-767            3      1.25%     91.25% # Bytes accessed per row activation
system.mem_ctrls.dram.bytesPerActivate::768-895            4      1.67%     92.92% # Bytes accessed per row activation
system.mem_ctrls.dram.bytesPerActivate::896-1023            5      2.08%     95.00% # Bytes accessed per row activation
system.mem_ctrls.dram.bytesPerActivate::1024-1151           12      5.00%    100.00% # Bytes accessed per row activation
system.mem_ctrls.dram.bytesPerActivate::total          240                       # Bytes accessed per row activation
system.mem_ctrls.dram.bytesRead                 77888                       # Total number of bytes read from DRAM
system.mem_ctrls.dram.bytesWritten                  0                       # Total number of bytes written to DRAM
system.mem_ctrls.dram.avgRdBW              181.683494                       # Average DRAM read bandwidth in MiBytes/s
system.mem_ctrls.dram.avgWrBW                       0                       # Average DRAM write bandwidth in MiBytes/s
system.mem_ctrls.dram.peakBW                 12800.00                       # Theoretical peak bandwidth in MiByte/s
system.mem_ctrls.dram.busUtil                    1.42                       # Data bus utilization in percentage
system.mem_ctrls.dram.busUtilRead                1.42                       # Data bus utilization in percentage for reads
system.mem_ctrls.dram.busUtilWrite               0.00                       # Data bus utilization in percentage for writes
system.mem_ctrls.dram.pageHitRate               80.12                       # Row buffer hit rate, read and write combined
system.mem_ctrls.dram.power_state.pwrStateResidencyTicks::UNDEFINED    428701576                       # Cumulative time (in ticks) in various power states
system.mem_ctrls.dram.rank0.actEnergy         1306620                       # Energy for activate commands per rank (pJ)
system.mem_ctrls.dram.rank0.preEnergy          690690                       # Energy for precharge commands per rank (pJ)
system.mem_ctrls.dram.rank0.readEnergy        6490260                       # Energy for read commands per rank (pJ)
system.mem_ctrls.dram.rank0.writeEnergy             0                       # Energy for write commands per rank (pJ)
system.mem_ctrls.dram.rank0.refreshEnergy 33805200.000000                       # Energy for refresh commands per rank (pJ)
system.mem_ctrls.dram.rank0.actBackEnergy    167572590                       # Energy for active background per rank (pJ)
system.mem_ctrls.dram.rank0.preBackEnergy     23508000                       # Energy for precharge background per rank (pJ)
system.mem_ctrls.dram.rank0.actPowerDownEnergy            0                       # Energy for active power-down per rank (pJ)
system.mem_ctrls.dram.rank0.prePowerDownEnergy            0                       # Energy for precharge power-down per rank (pJ)
system.mem_ctrls.dram.rank0.selfRefreshEnergy            0                       # Energy for self refresh per rank (pJ)
system.mem_ctrls.dram.rank0.totalEnergy     233373360                       # Total energy per rank (pJ)
system.mem_ctrls.dram.rank0.averagePower   544.372526                       # Core power per rank (mW)
system.mem_ctrls.dram.rank0.totalIdleTime            0                       # Total Idle time Per DRAM Rank
system.mem_ctrls.dram.rank0.pwrStateTime::IDLE     59743408                       # Time in different power states
system.mem_ctrls.dram.rank0.pwrStateTime::REF     14300000                       # Time in different power states
system.mem_ctrls.dram.rank0.pwrStateTime::SREF            0                       # Time in different power states
system.mem_ctrls.dram.rank0.pwrStateTime::PRE_PDN            0                       # Time in different power states
system.mem_ctrls.dram.rank0.pwrStateTime::ACT    354658168                       # Time in different power states
system.mem_ctrls.dram.rank0.pwrStateTime::ACT_PDN            0                       # Time in different power states
system.mem_ctrls.dram.rank1.actEnergy          421260                       # Energy for activate commands per rank (pJ)
system.mem_ctrls.dram.rank1.preEnergy          220110                       # Energy for precharge commands per rank (pJ)
system.mem_ctrls.dram.rank1.readEnergy        2199120                       # Energy for read commands per rank (pJ)
system.mem_ctrls.dram.rank1.writeEnergy             0                       # Energy for write commands per rank (pJ)
system.mem_ctrls.dram.rank1.refreshEnergy 33805200.000000                       # Energy for refresh commands per rank (pJ)
system.mem_ctrls.dram.rank1.actBackEnergy     23876160                       # Energy for active background per rank (pJ)
system.mem_ctrls.dram.rank1.preBackEnergy    144515520                       # Energy for precharge background per rank (pJ)
system.mem_ctrls.dram.rank1.actPowerDownEnergy            0                       # Energy for active power-down per rank (pJ)
system.mem_ctrls.dram.rank1.prePowerDownEnergy            0                       # Energy for precharge power-down per rank (pJ)
system.mem_ctrls.dram.rank1.selfRefreshEnergy            0                       # Energy for self refresh per rank (pJ)
system.mem_ctrls.dram.rank1.totalEnergy     205037370                       # Total energy per rank (pJ)
system.mem_ctrls.dram.rank1.averagePower   478.275289                       # Core power per rank (mW)
system.mem_ctrls.dram.rank1.totalIdleTime            0                       # Total Idle time Per DRAM Rank
system.mem_ctrls.dram.rank1.pwrStateTime::IDLE    375501480                       # Time in different power states
system.mem_ctrls.dram.rank1.pwrStateTime::REF     14300000                       # Time in different power states
system.mem_ctrls.dram.rank1.pwrStateTime::SREF            0                       # Time in different power states
system.mem_ctrls.dram.rank1.pwrStateTime::PRE_PDN            0                       # Time in different power states
system.mem_ctrls.dram.rank1.pwrStateTime::ACT     38900096                       # Time in different power states
system.mem_ctrls.dram.rank1.pwrStateTime::ACT_PDN            0                       # Time in different power states
system.mem_ctrls.power_state.pwrStateResidencyTicks::UNDEFINED    428701576                       # Cumulative time (in ticks) in various power states
system.membus.trans_dist::ReadResp                856                       # Transaction distribution
system.membus.trans_dist::ReadExReq               361                       # Transaction distribution
system.membus.trans_dist::ReadExResp              361                       # Transaction distribution
system.membus.trans_dist::ReadSharedReq           856                       # Transaction distribution
system.membus.pkt_count_system.l2.mem_side_port::system.mem_ctrls.port         2434                       # Packet count per connected requestor and responder (bytes)
system.membus.pkt_count_system.l2.mem_side_port::total         2434                       # Packet count per connected requestor and responder (bytes)
system.membus.pkt_count::total                   2434                       # Packet count per connected requestor and responder (bytes)
system.membus.pkt_size_system.l2.mem_side_port::system.mem_ctrls.port        77888                       # Cumulative packet size per connected requestor and responder (bytes)
system.membus.pkt_size_system.l2.mem_side_port::total        77888                       # Cumulative packet size per connected requestor and responder (bytes)
system.membus.pkt_size::total                   77888                       # Cumulative packet size per connected requestor and responder (bytes)
system.membus.snoops                                0                       # Total snoops (count)
system.membus.snoopTraffic                          0                       # Total snoop traffic (bytes)
system.membus.snoop_fanout::samples              1217                       # Request fanout histogram
system.membus.snoop_fanout::mean                    0                       # Request fanout histogram
system.membus.snoop_fanout::stdev                   0                       # Request fanout histogram
system.membus.snoop_fanout::underflows              0      0.00%      0.00% # Request fanout histogram
system.membus.snoop_fanout::0                    1217    100.00%    100.00% # Request fanout histogram
system.membus.snoop_fanout::1                       0      0.00%    100.00% # Request fanout histogram
system.membus.snoop_fanout::overflows               0      0.00%    100.00% # Request fanout histogram
system.membus.snoop_fanout::min_value               0                       # Request fanout histogram
system.membus.snoop_fanout::max_value               0                       # Request fanout histogram
system.membus.snoop_fanout::total                1217                       # Request fanout histogram
system.membus.power_state.pwrStateResidencyTicks::UNDEFINED    428701576                       # Cumulative time (in ticks) in various power states
system.membus.reqLayer2.occupancy             1801428                       # Layer occupancy (ticks)
system.membus.reqLayer2.utilization               0.4                       # Layer utilization (%)
system.membus.respLayer1.occupancy            6459270                       # Layer occupancy (ticks)
system.membus.respLayer1.utilization              1.5                       # Layer utilization (%)
system.tol2bus.trans_dist::ReadResp               867                       # Transaction distribution
system.tol2bus.trans_dist::WritebackClean           30                       # Transaction distribution
system.tol2bus.trans_dist::ReadExReq              361                       # Transaction distribution
system.tol2bus.trans_dist::ReadExResp             361                       # Transaction distribution
system.tol2bus.trans_dist::ReadCleanReq           489                       # Transaction distribution
system.tol2bus.trans_dist::ReadSharedReq          379                       # Transaction distribution
system.tol2bus.pkt_count_system.cpu.icache.mem_side_port::system.l2.cpu_side_port         1007                       # Packet count per connected requestor and responder (bytes)
system.tol2bus.pkt_count_system.cpu.dcache.mem_side_port::system.l2.cpu_side_port         1480                       # Packet count per connected requestor and responder (bytes)
system.tol2bus.pkt_count::total                  2487                       # Packet count per connected requestor and responder (bytes)
system.tol2bus.pkt_size_system.cpu.icache.mem_side_port::system.l2.cpu_side_port        33152                       # Cumulative packet size per connected requestor and responder (bytes)
system.tol2bus.pkt_size_system.cpu.dcache.mem_side_port::system.l2.cpu_side_port        47360                       # Cumulative packet size per connected requestor and responder (bytes)
system.tol2bus.pkt_size::total                  80512                       # Cumulative packet size per connected requestor and responder (bytes)
system.tol2bus.snoops                               0                       # Total snoops (count)
system.tol2bus.snoopTraffic                         0                       # Total snoop traffic (bytes)
system.tol2bus.snoop_fanout::samples             1229                       # Request fanout histogram
system.tol2bus.snoop_fanout::mean                   0                       # Request fanout histogram
system.tol2bus.snoop_fanout::stdev                  0                       # Request fanout histogram
system.tol2bus.snoop_fanout::underflows             0      0.00%      0.00% # Request fanout histogram
system.tol2bus.snoop_fanout::0                   1229    100.00%    100.00% # Request fanout histogram
system.tol2bus.snoop_fanout::1                      0      0.00%    100.00% # Request fanout histogram
system.tol2bus.snoop_fanout::2                      0      0.00%    100.00% # Request fanout histogram
system.tol2bus.snoop_fanout::3                      0      0.00%    100.00% # Request fanout histogram
system.tol2bus.snoop_fanout::4                      0      0.00%    100.00% # Request fanout histogram
system.tol2bus.snoop_fanout::overflows              0      0.00%    100.00% # Request fanout histogram
system.tol2bus.snoop_fanout::min_value              0                       # Request fanout histogram
system.tol2bus.snoop_fanout::max_value              0                       # Request fanout histogram
system.tol2bus.snoop_fanout::total               1229                       # Request fanout histogram
system.tol2bus.power_state.pwrStateResidencyTicks::UNDEFINED    428701576                       # Cumulative time (in ticks) in various power states
system.tol2bus.reqLayer0.occupancy             733364                       # Layer occupancy (ticks)
system.tol2bus.reqLayer0.utilization              0.2                       # Layer utilization (%)
system.tol2bus.respLayer0.occupancy            813984                       # Layer occupancy (ticks)
system.tol2bus.respLayer0.utilization             0.2                       # Layer utilization (%)
system.tol2bus.respLayer1.occupancy           1234320                       # Layer occupancy (ticks)
system.tol2bus.respLayer1.utilization             0.3                       # Layer utilization (%)
system.voltage_domain.voltage                       1                       # Voltage in Volts

---------- End Simulation Statistics   ----------
