
---------- Begin Simulation Statistics ----------
final_tick                                12650638500                       # Number of ticks from beginning of simulation (restored from checkpoints and never reset)
host_inst_rate                                 162965                       # Simulator instruction rate (inst/s)
host_mem_usage                                 656628                       # Number of bytes of host memory used
host_op_rate                                   290099                       # Simulator op (including micro ops) rate (op/s)
host_seconds                                    61.34                       # Real time elapsed on the host
host_tick_rate                              206244138                       # Simulator tick rate (ticks/s)
sim_freq                                 1000000000000                       # Frequency of simulated ticks
sim_insts                                     9995921                       # Number of instructions simulated
sim_ops                                      17794161                       # Number of ops (including micro ops) simulated
sim_seconds                                  0.012651                       # Number of seconds simulated
sim_ticks                                 12650638500                       # Number of ticks simulated
system.cpu.cc_regfile_reads                  11357577                       # number of cc regfile reads
system.cpu.cc_regfile_writes                  9084477                       # number of cc regfile writes
system.cpu.committedInsts                     9995921                       # Number of Instructions Simulated
system.cpu.committedOps                      17794161                       # Number of Ops (including micro ops) Simulated
system.cpu.cpi                               2.531160                       # CPI: Cycles Per Instruction
system.cpu.cpi_total                         2.531160                       # CPI: Total CPI of All Threads
system.cpu.fp_regfile_reads                   4376526                       # number of floating regfile reads
system.cpu.fp_regfile_writes                  2000717                       # number of floating regfile writes
system.cpu.idleCycles                           37694                       # Total number of cycles that the CPU has spent unscheduled due to idling
system.cpu.iew.branchMispredicts                 1077                       # Number of branch mispredicts detected at execute
system.cpu.iew.exec_branches                  2271717                       # Number of branches executed
system.cpu.iew.exec_nop                             0                       # number of nop insts executed
system.cpu.iew.exec_rate                     0.705646                       # Inst execution rate
system.cpu.iew.exec_refs                      2335841                       # number of memory reference insts executed
system.cpu.iew.exec_stores                    2207008                       # Number of stores executed
system.cpu.iew.exec_swp                             0                       # number of swp insts executed
system.cpu.iew.iewBlockCycles                  149132                       # Number of cycles IEW is blocking
system.cpu.iew.iewDispLoadInsts                129290                       # Number of dispatched load instructions
system.cpu.iew.iewDispNonSpecInsts                 17                       # Number of dispatched non-speculative instructions
system.cpu.iew.iewDispSquashedInsts                24                       # Number of squashed instructions skipped by dispatch
system.cpu.iew.iewDispStoreInsts              2207518                       # Number of dispatched store instructions
system.cpu.iew.iewDispatchedInsts            17858744                       # Number of instructions dispatched to IQ
system.cpu.iew.iewExecLoadInsts                128833                       # Number of load instructions executed
system.cpu.iew.iewExecSquashedInsts              1076                       # Number of squashed instructions skipped in execute
system.cpu.iew.iewExecutedInsts              17853751                       # Number of executed instructions
system.cpu.iew.iewIQFullEvents                  31171                       # Number of times the IQ has become full, causing a stall
system.cpu.iew.iewIdleCycles                        0                       # Number of cycles IEW is idle
system.cpu.iew.iewLSQFullEvents               6202572                       # Number of times the LSQ has become full, causing a stall
system.cpu.iew.iewSquashCycles                   1224                       # Number of cycles IEW is squashing
system.cpu.iew.iewUnblockCycles               6249254                       # Number of cycles IEW is unblocking
system.cpu.iew.memOrderViolationEvents             11                       # Number of memory order violations
system.cpu.iew.predictedNotTakenIncorrect          717                       # Number of branches that were predicted not taken incorrectly
system.cpu.iew.predictedTakenIncorrect            360                       # Number of branches that were predicted taken incorrectly
system.cpu.iew.wb_consumers                  18132036                       # num instructions consuming a value
system.cpu.iew.wb_count                      17846090                       # cumulative count of insts written-back
system.cpu.iew.wb_fanout                     0.656872                       # average fanout of values written-back
system.cpu.iew.wb_producers                  11910429                       # num instructions producing a value
system.cpu.iew.wb_rate                       0.705343                       # insts written-back per cycle
system.cpu.iew.wb_sent                       17853266                       # cumulative count of insts sent to commit
system.cpu.int_regfile_reads                 22737941                       # number of integer regfile reads
system.cpu.int_regfile_writes                11374286                       # number of integer regfile writes
system.cpu.ipc                               0.395076                       # IPC: Instructions Per Cycle
system.cpu.ipc_total                         0.395076                       # IPC: Total IPC of All Threads
system.cpu.iq.FU_type_0::No_OpClass               774      0.00%      0.00% # Type of FU issued
system.cpu.iq.FU_type_0::IntAlu              14016142     78.50%     78.50% # Type of FU issued
system.cpu.iq.FU_type_0::IntMult                 1164      0.01%     78.51% # Type of FU issued
system.cpu.iq.FU_type_0::IntDiv                    28      0.00%     78.51% # Type of FU issued
system.cpu.iq.FU_type_0::FloatAdd                 145      0.00%     78.51% # Type of FU issued
system.cpu.iq.FU_type_0::FloatCmp                   0      0.00%     78.51% # Type of FU issued
system.cpu.iq.FU_type_0::FloatCvt                   0      0.00%     78.51% # Type of FU issued
system.cpu.iq.FU_type_0::FloatMult                  0      0.00%     78.51% # Type of FU issued
system.cpu.iq.FU_type_0::FloatMultAcc               0      0.00%     78.51% # Type of FU issued
system.cpu.iq.FU_type_0::FloatDiv                   0      0.00%     78.51% # Type of FU issued
system.cpu.iq.FU_type_0::FloatMisc                  0      0.00%     78.51% # Type of FU issued
system.cpu.iq.FU_type_0::FloatSqrt                  0      0.00%     78.51% # Type of FU issued
system.cpu.iq.FU_type_0::SimdAdd               499996      2.80%     81.31% # Type of FU issued
system.cpu.iq.FU_type_0::SimdAddAcc                 0      0.00%     81.31% # Type of FU issued
system.cpu.iq.FU_type_0::SimdAlu               125172      0.70%     82.01% # Type of FU issued
system.cpu.iq.FU_type_0::SimdCmp                    0      0.00%     82.01% # Type of FU issued
system.cpu.iq.FU_type_0::SimdCvt               125046      0.70%     82.71% # Type of FU issued
system.cpu.iq.FU_type_0::SimdMisc              750207      4.20%     86.92% # Type of FU issued
system.cpu.iq.FU_type_0::SimdMult                   0      0.00%     86.92% # Type of FU issued
system.cpu.iq.FU_type_0::SimdMultAcc                0      0.00%     86.92% # Type of FU issued
system.cpu.iq.FU_type_0::SimdShift                 13      0.00%     86.92% # Type of FU issued
system.cpu.iq.FU_type_0::SimdShiftAcc               0      0.00%     86.92% # Type of FU issued
system.cpu.iq.FU_type_0::SimdDiv                    0      0.00%     86.92% # Type of FU issued
system.cpu.iq.FU_type_0::SimdSqrt                   0      0.00%     86.92% # Type of FU issued
system.cpu.iq.FU_type_0::SimdFloatAdd               0      0.00%     86.92% # Type of FU issued
system.cpu.iq.FU_type_0::SimdFloatAlu               0      0.00%     86.92% # Type of FU issued
system.cpu.iq.FU_type_0::SimdFloatCmp               0      0.00%     86.92% # Type of FU issued
system.cpu.iq.FU_type_0::SimdFloatCvt               0      0.00%     86.92% # Type of FU issued
system.cpu.iq.FU_type_0::SimdFloatDiv               0      0.00%     86.92% # Type of FU issued
system.cpu.iq.FU_type_0::SimdFloatMisc              0      0.00%     86.92% # Type of FU issued
system.cpu.iq.FU_type_0::SimdFloatMult              0      0.00%     86.92% # Type of FU issued
system.cpu.iq.FU_type_0::SimdFloatMultAcc            0      0.00%     86.92% # Type of FU issued
system.cpu.iq.FU_type_0::SimdFloatSqrt              0      0.00%     86.92% # Type of FU issued
system.cpu.iq.FU_type_0::SimdReduceAdd              0      0.00%     86.92% # Type of FU issued
system.cpu.iq.FU_type_0::SimdReduceAlu              0      0.00%     86.92% # Type of FU issued
system.cpu.iq.FU_type_0::SimdReduceCmp              0      0.00%     86.92% # Type of FU issued
system.cpu.iq.FU_type_0::SimdFloatReduceAdd            0      0.00%     86.92% # Type of FU issued
system.cpu.iq.FU_type_0::SimdFloatReduceCmp            0      0.00%     86.92% # Type of FU issued
system.cpu.iq.FU_type_0::SimdAes                    0      0.00%     86.92% # Type of FU issued
system.cpu.iq.FU_type_0::SimdAesMix                 0      0.00%     86.92% # Type of FU issued
system.cpu.iq.FU_type_0::SimdSha1Hash               0      0.00%     86.92% # Type of FU issued
system.cpu.iq.FU_type_0::SimdSha1Hash2              0      0.00%     86.92% # Type of FU issued
system.cpu.iq.FU_type_0::SimdSha256Hash             0      0.00%     86.92% # Type of FU issued
system.cpu.iq.FU_type_0::SimdSha256Hash2            0      0.00%     86.92% # Type of FU issued
system.cpu.iq.FU_type_0::SimdShaSigma2              0      0.00%     86.92% # Type of FU issued
system.cpu.iq.FU_type_0::SimdShaSigma3              0      0.00%     86.92% # Type of FU issued
system.cpu.iq.FU_type_0::SimdPredAlu                0      0.00%     86.92% # Type of FU issued
system.cpu.iq.FU_type_0::MemRead                 3969      0.02%     86.94% # Type of FU issued
system.cpu.iq.FU_type_0::MemWrite             2206579     12.36%     99.30% # Type of FU issued
system.cpu.iq.FU_type_0::FloatMemRead          125064      0.70%    100.00% # Type of FU issued
system.cpu.iq.FU_type_0::FloatMemWrite            528      0.00%    100.00% # Type of FU issued
system.cpu.iq.FU_type_0::IprAccess                  0      0.00%    100.00% # Type of FU issued
system.cpu.iq.FU_type_0::InstPrefetch               0      0.00%    100.00% # Type of FU issued
system.cpu.iq.FU_type_0::total               17854827                       # Type of FU issued
system.cpu.iq.fp_alu_accesses                 2281974                       # Number of floating point alu accesses
system.cpu.iq.fp_inst_queue_reads             4283289                       # Number of floating instruction queue reads
system.cpu.iq.fp_inst_queue_wakeup_accesses      2001284                       # Number of floating instruction queue wakeup accesses
system.cpu.iq.fp_inst_queue_writes            2001626                       # Number of floating instruction queue writes
system.cpu.iq.fu_busy_cnt                      335634                       # FU busy when requested
system.cpu.iq.fu_busy_rate                   0.018798                       # FU busy rate (busy events/executed inst)
system.cpu.iq.fu_full::No_OpClass                   0      0.00%      0.00% # attempts to use FU when none available
system.cpu.iq.fu_full::IntAlu                   54913     16.36%     16.36% # attempts to use FU when none available
system.cpu.iq.fu_full::IntMult                      0      0.00%     16.36% # attempts to use FU when none available
system.cpu.iq.fu_full::IntDiv                       0      0.00%     16.36% # attempts to use FU when none available
system.cpu.iq.fu_full::FloatAdd                     0      0.00%     16.36% # attempts to use FU when none available
system.cpu.iq.fu_full::FloatCmp                     0      0.00%     16.36% # attempts to use FU when none available
system.cpu.iq.fu_full::FloatCvt                     0      0.00%     16.36% # attempts to use FU when none available
system.cpu.iq.fu_full::FloatMult                    0      0.00%     16.36% # attempts to use FU when none available
system.cpu.iq.fu_full::FloatMultAcc                 0      0.00%     16.36% # attempts to use FU when none available
system.cpu.iq.fu_full::FloatDiv                     0      0.00%     16.36% # attempts to use FU when none available
system.cpu.iq.fu_full::FloatMisc                    0      0.00%     16.36% # attempts to use FU when none available
system.cpu.iq.fu_full::FloatSqrt                    0      0.00%     16.36% # attempts to use FU when none available
system.cpu.iq.fu_full::SimdAdd                      0      0.00%     16.36% # attempts to use FU when none available
system.cpu.iq.fu_full::SimdAddAcc                   0      0.00%     16.36% # attempts to use FU when none available
system.cpu.iq.fu_full::SimdAlu                  93532     27.87%     44.23% # attempts to use FU when none available
system.cpu.iq.fu_full::SimdCmp                      0      0.00%     44.23% # attempts to use FU when none available
system.cpu.iq.fu_full::SimdCvt                 124714     37.16%     81.39% # attempts to use FU when none available
system.cpu.iq.fu_full::SimdMisc                 62410     18.59%     99.98% # attempts to use FU when none available
system.cpu.iq.fu_full::SimdMult                     0      0.00%     99.98% # attempts to use FU when none available
system.cpu.iq.fu_full::SimdMultAcc                  0      0.00%     99.98% # attempts to use FU when none available
system.cpu.iq.fu_full::SimdShift                    0      0.00%     99.98% # attempts to use FU when none available
system.cpu.iq.fu_full::SimdShiftAcc                 0      0.00%     99.98% # attempts to use FU when none available
system.cpu.iq.fu_full::SimdDiv                      0      0.00%     99.98% # attempts to use FU when none available
system.cpu.iq.fu_full::SimdSqrt                     0      0.00%     99.98% # attempts to use FU when none available
system.cpu.iq.fu_full::SimdFloatAdd                 0      0.00%     99.98% # attempts to use FU when none available
system.cpu.iq.fu_full::SimdFloatAlu                 0      0.00%     99.98% # attempts to use FU when none available
system.cpu.iq.fu_full::SimdFloatCmp                 0      0.00%     99.98% # attempts to use FU when none available
system.cpu.iq.fu_full::SimdFloatCvt                 0      0.00%     99.98% # attempts to use FU when none available
system.cpu.iq.fu_full::SimdFloatDiv                 0      0.00%     99.98% # attempts to use FU when none available
system.cpu.iq.fu_full::SimdFloatMisc                0      0.00%     99.98% # attempts to use FU when none available
system.cpu.iq.fu_full::SimdFloatMult                0      0.00%     99.98% # attempts to use FU when none available
system.cpu.iq.fu_full::SimdFloatMultAcc             0      0.00%     99.98% # attempts to use FU when none available
system.cpu.iq.fu_full::SimdFloatSqrt                0      0.00%     99.98% # attempts to use FU when none available
system.cpu.iq.fu_full::SimdReduceAdd                0      0.00%     99.98% # attempts to use FU when none available
system.cpu.iq.fu_full::SimdReduceAlu                0      0.00%     99.98% # attempts to use FU when none available
system.cpu.iq.fu_full::SimdReduceCmp                0      0.00%     99.98% # attempts to use FU when none available
system.cpu.iq.fu_full::SimdFloatReduceAdd            0      0.00%     99.98% # attempts to use FU when none available
system.cpu.iq.fu_full::SimdFloatReduceCmp            0      0.00%     99.98% # attempts to use FU when none available
system.cpu.iq.fu_full::SimdAes                      0      0.00%     99.98% # attempts to use FU when none available
system.cpu.iq.fu_full::SimdAesMix                   0      0.00%     99.98% # attempts to use FU when none available
system.cpu.iq.fu_full::SimdSha1Hash                 0      0.00%     99.98% # attempts to use FU when none available
system.cpu.iq.fu_full::SimdSha1Hash2                0      0.00%     99.98% # attempts to use FU when none available
system.cpu.iq.fu_full::SimdSha256Hash               0      0.00%     99.98% # attempts to use FU when none available
system.cpu.iq.fu_full::SimdSha256Hash2              0      0.00%     99.98% # attempts to use FU when none available
system.cpu.iq.fu_full::SimdShaSigma2                0      0.00%     99.98% # attempts to use FU when none available
system.cpu.iq.fu_full::SimdShaSigma3                0      0.00%     99.98% # attempts to use FU when none available
system.cpu.iq.fu_full::SimdPredAlu                  0      0.00%     99.98% # attempts to use FU when none available
system.cpu.iq.fu_full::MemRead                     35      0.01%     99.99% # attempts to use FU when none available
system.cpu.iq.fu_full::MemWrite                    21      0.01%    100.00% # attempts to use FU when none available
system.cpu.iq.fu_full::FloatMemRead                 2      0.00%    100.00% # attempts to use FU when none available
system.cpu.iq.fu_full::FloatMemWrite                7      0.00%    100.00% # attempts to use FU when none available
system.cpu.iq.fu_full::IprAccess                    0      0.00%    100.00% # attempts to use FU when none available
system.cpu.iq.fu_full::InstPrefetch                 0      0.00%    100.00% # attempts to use FU when none available
system.cpu.iq.int_alu_accesses               15907713                       # Number of integer alu accesses
system.cpu.iq.int_inst_queue_reads           57025645                       # Number of integer instruction queue reads
system.cpu.iq.int_inst_queue_wakeup_accesses     15844806                       # Number of integer instruction queue wakeup accesses
system.cpu.iq.int_inst_queue_writes          15921705                       # Number of integer instruction queue writes
system.cpu.iq.iqInstsAdded                   17858695                       # Number of instructions added to the IQ (excludes non-spec)
system.cpu.iq.iqInstsIssued                  17854827                       # Number of instructions issued
system.cpu.iq.iqNonSpecInstsAdded                  49                       # Number of non-speculative instructions added to the IQ
system.cpu.iq.iqSquashedInstsExamined           64577                       # Number of squashed instructions iterated over during squash; mainly for profiling
system.cpu.iq.iqSquashedInstsIssued                62                       # Number of squashed instructions issued
system.cpu.iq.iqSquashedNonSpecRemoved             37                       # Number of squashed non-spec instructions that were removed
system.cpu.iq.iqSquashedOperandsExamined        46593                       # Number of squashed operands that are examined and possibly removed from graph
system.cpu.iq.issued_per_cycle::samples      25263584                       # Number of insts issued each cycle
system.cpu.iq.issued_per_cycle::mean         0.706742                       # Number of insts issued each cycle
system.cpu.iq.issued_per_cycle::stdev        1.534502                       # Number of insts issued each cycle
system.cpu.iq.issued_per_cycle::underflows            0      0.00%      0.00% # Number of insts issued each cycle
system.cpu.iq.issued_per_cycle::0            19628268     77.69%     77.69% # Number of insts issued each cycle
system.cpu.iq.issued_per_cycle::1              989627      3.92%     81.61% # Number of insts issued each cycle
system.cpu.iq.issued_per_cycle::2             1560135      6.18%     87.79% # Number of insts issued each cycle
system.cpu.iq.issued_per_cycle::3              617455      2.44%     90.23% # Number of insts issued each cycle
system.cpu.iq.issued_per_cycle::4             1027630      4.07%     94.30% # Number of insts issued each cycle
system.cpu.iq.issued_per_cycle::5             1026974      4.07%     98.36% # Number of insts issued each cycle
system.cpu.iq.issued_per_cycle::6              325625      1.29%     99.65% # Number of insts issued each cycle
system.cpu.iq.issued_per_cycle::7                9535      0.04%     99.69% # Number of insts issued each cycle
system.cpu.iq.issued_per_cycle::8               78335      0.31%    100.00% # Number of insts issued each cycle
system.cpu.iq.issued_per_cycle::overflows            0      0.00%    100.00% # Number of insts issued each cycle
system.cpu.iq.issued_per_cycle::min_value            0                       # Number of insts issued each cycle
system.cpu.iq.issued_per_cycle::max_value            8                       # Number of insts issued each cycle
system.cpu.iq.issued_per_cycle::total        25263584                       # Number of insts issued each cycle
system.cpu.iq.rate                           0.705689                       # Inst issue rate
system.cpu.iq.vec_alu_accesses                      0                       # Number of vector alu accesses
system.cpu.iq.vec_inst_queue_reads                  0                       # Number of vector instruction queue reads
system.cpu.iq.vec_inst_queue_wakeup_accesses            0                       # Number of vector instruction queue wakeup accesses
system.cpu.iq.vec_inst_queue_writes                 0                       # Number of vector instruction queue writes
system.cpu.memDep0.conflictingLoads                38                       # Number of conflicting loads.
system.cpu.memDep0.conflictingStores               19                       # Number of conflicting stores.
system.cpu.memDep0.insertedLoads               129290                       # Number of loads inserted to the mem dependence unit.
system.cpu.memDep0.insertedStores             2207518                       # Number of stores inserted to the mem dependence unit.
system.cpu.misc_regfile_reads                 6880696                       # number of misc regfile reads
system.cpu.numCycles                         25301278                       # number of cpu cycles simulated
system.cpu.numWorkItemsCompleted                    0                       # number of work items this cpu completed
system.cpu.numWorkItemsStarted                      0                       # number of work items this cpu started
system.cpu.timesIdled                             314                       # Number of times that the entire CPU went into an idle state and unscheduled itself
system.cpu.workload.numSyscalls                    11                       # Number of system calls
system.membus.snoop_filter.hit_multi_requests            0                       # Number of requests hitting in the snoop filter with multiple (>1) holders of the requested data.
system.membus.snoop_filter.hit_multi_snoops            0                       # Number of snoops hitting in the snoop filter with multiple (>1) holders of the requested data.
system.membus.snoop_filter.hit_single_requests           19                       # Number of requests hitting in the snoop filter with a single holder of the requested data.
system.membus.snoop_filter.hit_single_snoops            0                       # Number of snoops hitting in the snoop filter with a single holder of the requested data.
system.membus.snoop_filter.tot_requests         16359                       # Total number of requests made to the snoop filter.
system.membus.snoop_filter.tot_snoops               0                       # Total number of snoops made to the snoop filter.
system.tol2bus.snoop_filter.hit_multi_requests            0                       # Number of requests hitting in the snoop filter with multiple (>1) holders of the requested data.
system.tol2bus.snoop_filter.hit_multi_snoops            0                       # Number of snoops hitting in the snoop filter with multiple (>1) holders of the requested data.
system.tol2bus.snoop_filter.hit_single_requests       752179                       # Number of requests hitting in the snoop filter with a single holder of the requested data.
system.tol2bus.snoop_filter.hit_single_snoops          434                       # Number of snoops hitting in the snoop filter with a single holder of the requested data.
system.tol2bus.snoop_filter.tot_requests      1505844                       # Total number of requests made to the snoop filter.
system.tol2bus.snoop_filter.tot_snoops            434                       # Total number of snoops made to the snoop filter.
system.clk_domain.clock                          1000                       # Clock period in ticks
system.cpu.branchPred.lookups                 2277375                       # Number of BP lookups
system.cpu.branchPred.condPredicted           2276146                       # Number of conditional branches predicted
system.cpu.branchPred.condIncorrect              1050                       # Number of conditional branches incorrect
system.cpu.branchPred.BTBLookups              2273721                       # Number of BTB lookups
system.cpu.branchPred.BTBHits                 2272919                       # Number of BTB hits
system.cpu.branchPred.BTBHitPct             99.964727                       # BTB Hit Percentage
system.cpu.branchPred.RASUsed                     300                       # Number of times the RAS was used to get a target.
system.cpu.branchPred.RASIncorrect                  0                       # Number of incorrect RAS predictions.
system.cpu.branchPred.indirectLookups             285                       # Number of indirect predictor lookups.
system.cpu.branchPred.indirectHits                 16                       # Number of indirect target hits.
system.cpu.branchPred.indirectMisses              269                       # Number of indirect misses.
system.cpu.branchPred.indirectMispredicted           90                       # Number of mispredicted indirect branches.
system.cpu.commit.commitSquashedInsts           64716                       # The number of squashed insts skipped by commit
system.cpu.commit.commitNonSpecStalls              12                       # The number of times commit has been forced to stall to communicate backwards
system.cpu.commit.branchMispredicts               956                       # The number of times a branch was mispredicted
system.cpu.commit.numCommittedDist::samples     25254824                       # Number of insts commited each cycle
system.cpu.commit.numCommittedDist::mean     0.704585                       # Number of insts commited each cycle
system.cpu.commit.numCommittedDist::stdev     1.559652                       # Number of insts commited each cycle
system.cpu.commit.numCommittedDist::underflows            0      0.00%      0.00% # Number of insts commited each cycle
system.cpu.commit.numCommittedDist::0        19714177     78.06%     78.06% # Number of insts commited each cycle
system.cpu.commit.numCommittedDist::1          239213      0.95%     79.01% # Number of insts commited each cycle
system.cpu.commit.numCommittedDist::2         2243122      8.88%     87.89% # Number of insts commited each cycle
system.cpu.commit.numCommittedDist::3         1470278      5.82%     93.71% # Number of insts commited each cycle
system.cpu.commit.numCommittedDist::4          729979      2.89%     96.60% # Number of insts commited each cycle
system.cpu.commit.numCommittedDist::5          290355      1.15%     97.75% # Number of insts commited each cycle
system.cpu.commit.numCommittedDist::6           42992      0.17%     97.92% # Number of insts commited each cycle
system.cpu.commit.numCommittedDist::7          169437      0.67%     98.59% # Number of insts commited each cycle
system.cpu.commit.numCommittedDist::8          355271      1.41%    100.00% # Number of insts commited each cycle
system.cpu.commit.numCommittedDist::overflows            0      0.00%    100.00% # Number of insts commited each cycle
system.cpu.commit.numCommittedDist::min_value            0                       # Number of insts commited each cycle
system.cpu.commit.numCommittedDist::max_value            8                       # Number of insts commited each cycle
system.cpu.commit.numCommittedDist::total     25254824                       # Number of insts commited each cycle
system.cpu.commit.instsCommitted              9995921                       # Number of instructions committed
system.cpu.commit.opsCommitted               17794161                       # Number of ops (including micro ops) committed
system.cpu.commit.memRefs                     2327019                       # Number of memory references committed
system.cpu.commit.loads                        127545                       # Number of loads committed
system.cpu.commit.amos                              0                       # Number of atomic instructions committed
system.cpu.commit.membars                           8                       # Number of memory barriers committed
system.cpu.commit.branches                    2264230                       # Number of branches committed
system.cpu.commit.vector                            0                       # Number of committed Vector instructions.
system.cpu.commit.floating                    2001126                       # Number of committed floating point instructions.
system.cpu.commit.integer                    15918412                       # Number of committed integer instructions.
system.cpu.commit.functionCalls                   148                       # Number of function calls committed.
system.cpu.commit.committedInstType_0::No_OpClass          287      0.00%      0.00% # Class of committed instruction
system.cpu.commit.committedInstType_0::IntAlu     13965345     78.48%     78.48% # Class of committed instruction
system.cpu.commit.committedInstType_0::IntMult         1004      0.01%     78.49% # Class of committed instruction
system.cpu.commit.committedInstType_0::IntDiv           21      0.00%     78.49% # Class of committed instruction
system.cpu.commit.committedInstType_0::FloatAdd          135      0.00%     78.49% # Class of committed instruction
system.cpu.commit.committedInstType_0::FloatCmp            0      0.00%     78.49% # Class of committed instruction
system.cpu.commit.committedInstType_0::FloatCvt            0      0.00%     78.49% # Class of committed instruction
system.cpu.commit.committedInstType_0::FloatMult            0      0.00%     78.49% # Class of committed instruction
system.cpu.commit.committedInstType_0::FloatMultAcc            0      0.00%     78.49% # Class of committed instruction
system.cpu.commit.committedInstType_0::FloatDiv            0      0.00%     78.49% # Class of committed instruction
system.cpu.commit.committedInstType_0::FloatMisc            0      0.00%     78.49% # Class of committed instruction
system.cpu.commit.committedInstType_0::FloatSqrt            0      0.00%     78.49% # Class of committed instruction
system.cpu.commit.committedInstType_0::SimdAdd       499996      2.81%     81.30% # Class of committed instruction
system.cpu.commit.committedInstType_0::SimdAddAcc            0      0.00%     81.30% # Class of committed instruction
system.cpu.commit.committedInstType_0::SimdAlu       125100      0.70%     82.00% # Class of committed instruction
system.cpu.commit.committedInstType_0::SimdCmp            0      0.00%     82.00% # Class of committed instruction
system.cpu.commit.committedInstType_0::SimdCvt       125044      0.70%     82.71% # Class of committed instruction
system.cpu.commit.committedInstType_0::SimdMisc       750204      4.22%     86.92% # Class of committed instruction
system.cpu.commit.committedInstType_0::SimdMult            0      0.00%     86.92% # Class of committed instruction
system.cpu.commit.committedInstType_0::SimdMultAcc            0      0.00%     86.92% # Class of committed instruction
system.cpu.commit.committedInstType_0::SimdShift            6      0.00%     86.92% # Class of committed instruction
system.cpu.commit.committedInstType_0::SimdShiftAcc            0      0.00%     86.92% # Class of committed instruction
system.cpu.commit.committedInstType_0::SimdDiv            0      0.00%     86.92% # Class of committed instruction
system.cpu.commit.committedInstType_0::SimdSqrt            0      0.00%     86.92% # Class of committed instruction
system.cpu.commit.committedInstType_0::SimdFloatAdd            0      0.00%     86.92% # Class of committed instruction
system.cpu.commit.committedInstType_0::SimdFloatAlu            0      0.00%     86.92% # Class of committed instruction
system.cpu.commit.committedInstType_0::SimdFloatCmp            0      0.00%     86.92% # Class of committed instruction
system.cpu.commit.committedInstType_0::SimdFloatCvt            0      0.00%     86.92% # Class of committed instruction
system.cpu.commit.committedInstType_0::SimdFloatDiv            0      0.00%     86.92% # Class of committed instruction
system.cpu.commit.committedInstType_0::SimdFloatMisc            0      0.00%     86.92% # Class of committed instruction
system.cpu.commit.committedInstType_0::SimdFloatMult            0      0.00%     86.92% # Class of committed instruction
system.cpu.commit.committedInstType_0::SimdFloatMultAcc            0      0.00%     86.92% # Class of committed instruction
system.cpu.commit.committedInstType_0::SimdFloatSqrt            0      0.00%     86.92% # Class of committed instruction
system.cpu.commit.committedInstType_0::SimdReduceAdd            0      0.00%     86.92% # Class of committed instruction
system.cpu.commit.committedInstType_0::SimdReduceAlu            0      0.00%     86.92% # Class of committed instruction
system.cpu.commit.committedInstType_0::SimdReduceCmp            0      0.00%     86.92% # Class of committed instruction
system.cpu.commit.committedInstType_0::SimdFloatReduceAdd            0      0.00%     86.92% # Class of committed instruction
system.cpu.commit.committedInstType_0::SimdFloatReduceCmp            0      0.00%     86.92% # Class of committed instruction
system.cpu.commit.committedInstType_0::SimdAes            0      0.00%     86.92% # Class of committed instruction
system.cpu.commit.committedInstType_0::SimdAesMix            0      0.00%     86.92% # Class of committed instruction
system.cpu.commit.committedInstType_0::SimdSha1Hash            0      0.00%     86.92% # Class of committed instruction
system.cpu.commit.committedInstType_0::SimdSha1Hash2            0      0.00%     86.92% # Class of committed instruction
system.cpu.commit.committedInstType_0::SimdSha256Hash            0      0.00%     86.92% # Class of committed instruction
system.cpu.commit.committedInstType_0::SimdSha256Hash2            0      0.00%     86.92% # Class of committed instruction
system.cpu.commit.committedInstType_0::SimdShaSigma2            0      0.00%     86.92% # Class of committed instruction
system.cpu.commit.committedInstType_0::SimdShaSigma3            0      0.00%     86.92% # Class of committed instruction
system.cpu.commit.committedInstType_0::SimdPredAlu            0      0.00%     86.92% # Class of committed instruction
system.cpu.commit.committedInstType_0::MemRead         2499      0.01%     86.94% # Class of committed instruction
system.cpu.commit.committedInstType_0::MemWrite      2199016     12.36%     99.29% # Class of committed instruction
system.cpu.commit.committedInstType_0::FloatMemRead       125046      0.70%    100.00% # Class of committed instruction
system.cpu.commit.committedInstType_0::FloatMemWrite          458      0.00%    100.00% # Class of committed instruction
system.cpu.commit.committedInstType_0::IprAccess            0      0.00%    100.00% # Class of committed instruction
system.cpu.commit.committedInstType_0::InstPrefetch            0      0.00%    100.00% # Class of committed instruction
system.cpu.commit.committedInstType_0::total     17794161                       # Class of committed instruction
system.cpu.commit.commitEligibleSamples        355271                       # number cycles where commit BW limit reached
system.cpu.dcache.demand_hits::.cpu.data      1527920                       # number of demand (read+write) hits
system.cpu.dcache.demand_hits::total          1527920                       # number of demand (read+write) hits
system.cpu.dcache.overall_hits::.cpu.data      1527920                       # number of overall hits
system.cpu.dcache.overall_hits::total         1527920                       # number of overall hits
system.cpu.dcache.demand_misses::.cpu.data       815697                       # number of demand (read+write) misses
system.cpu.dcache.demand_misses::total         815697                       # number of demand (read+write) misses
system.cpu.dcache.overall_misses::.cpu.data       815697                       # number of overall misses
system.cpu.dcache.overall_misses::total        815697                       # number of overall misses
system.cpu.dcache.demand_miss_latency::.cpu.data  11599570999                       # number of demand (read+write) miss cycles
system.cpu.dcache.demand_miss_latency::total  11599570999                       # number of demand (read+write) miss cycles
system.cpu.dcache.overall_miss_latency::.cpu.data  11599570999                       # number of overall miss cycles
system.cpu.dcache.overall_miss_latency::total  11599570999                       # number of overall miss cycles
system.cpu.dcache.demand_accesses::.cpu.data      2343617                       # number of demand (read+write) accesses
system.cpu.dcache.demand_accesses::total      2343617                       # number of demand (read+write) accesses
system.cpu.dcache.overall_accesses::.cpu.data      2343617                       # number of overall (read+write) accesses
system.cpu.dcache.overall_accesses::total      2343617                       # number of overall (read+write) accesses
system.cpu.dcache.demand_miss_rate::.cpu.data     0.348050                       # miss rate for demand accesses
system.cpu.dcache.demand_miss_rate::total     0.348050                       # miss rate for demand accesses
system.cpu.dcache.overall_miss_rate::.cpu.data     0.348050                       # miss rate for overall accesses
system.cpu.dcache.overall_miss_rate::total     0.348050                       # miss rate for overall accesses
system.cpu.dcache.demand_avg_miss_latency::.cpu.data 14220.440922                       # average overall miss latency
system.cpu.dcache.demand_avg_miss_latency::total 14220.440922                       # average overall miss latency
system.cpu.dcache.overall_avg_miss_latency::.cpu.data 14220.440922                       # average overall miss latency
system.cpu.dcache.overall_avg_miss_latency::total 14220.440922                       # average overall miss latency
system.cpu.dcache.blocked_cycles::no_mshrs         1665                       # number of cycles access was blocked
system.cpu.dcache.blocked_cycles::no_targets            0                       # number of cycles access was blocked
system.cpu.dcache.blocked::no_mshrs                20                       # number of cycles access was blocked
system.cpu.dcache.blocked::no_targets               0                       # number of cycles access was blocked
system.cpu.dcache.avg_blocked_cycles::no_mshrs    83.250000                       # average number of cycles each access was blocked
system.cpu.dcache.avg_blocked_cycles::no_targets          nan                       # average number of cycles each access was blocked
system.cpu.dcache.writebacks::.writebacks       752069                       # number of writebacks
system.cpu.dcache.writebacks::total            752069                       # number of writebacks
system.cpu.dcache.demand_mshr_hits::.cpu.data        62518                       # number of demand (read+write) MSHR hits
system.cpu.dcache.demand_mshr_hits::total        62518                       # number of demand (read+write) MSHR hits
system.cpu.dcache.overall_mshr_hits::.cpu.data        62518                       # number of overall MSHR hits
system.cpu.dcache.overall_mshr_hits::total        62518                       # number of overall MSHR hits
system.cpu.dcache.demand_mshr_misses::.cpu.data       753179                       # number of demand (read+write) MSHR misses
system.cpu.dcache.demand_mshr_misses::total       753179                       # number of demand (read+write) MSHR misses
system.cpu.dcache.overall_mshr_misses::.cpu.data       753179                       # number of overall MSHR misses
system.cpu.dcache.overall_mshr_misses::total       753179                       # number of overall MSHR misses
system.cpu.dcache.demand_mshr_miss_latency::.cpu.data  10291262999                       # number of demand (read+write) MSHR miss cycles
system.cpu.dcache.demand_mshr_miss_latency::total  10291262999                       # number of demand (read+write) MSHR miss cycles
system.cpu.dcache.overall_mshr_miss_latency::.cpu.data  10291262999                       # number of overall MSHR miss cycles
system.cpu.dcache.overall_mshr_miss_latency::total  10291262999                       # number of overall MSHR miss cycles
system.cpu.dcache.demand_mshr_miss_rate::.cpu.data     0.321375                       # mshr miss rate for demand accesses
system.cpu.dcache.demand_mshr_miss_rate::total     0.321375                       # mshr miss rate for demand accesses
system.cpu.dcache.overall_mshr_miss_rate::.cpu.data     0.321375                       # mshr miss rate for overall accesses
system.cpu.dcache.overall_mshr_miss_rate::total     0.321375                       # mshr miss rate for overall accesses
system.cpu.dcache.demand_avg_mshr_miss_latency::.cpu.data 13663.767841                       # average overall mshr miss latency
system.cpu.dcache.demand_avg_mshr_miss_latency::total 13663.767841                       # average overall mshr miss latency
system.cpu.dcache.overall_avg_mshr_miss_latency::.cpu.data 13663.767841                       # average overall mshr miss latency
system.cpu.dcache.overall_avg_mshr_miss_latency::total 13663.767841                       # average overall mshr miss latency
system.cpu.dcache.replacements                 752155                       # number of replacements
system.cpu.dcache.ReadReq_hits::.cpu.data        65867                       # number of ReadReq hits
system.cpu.dcache.ReadReq_hits::total           65867                       # number of ReadReq hits
system.cpu.dcache.ReadReq_misses::.cpu.data        78275                       # number of ReadReq misses
system.cpu.dcache.ReadReq_misses::total         78275                       # number of ReadReq misses
system.cpu.dcache.ReadReq_miss_latency::.cpu.data    770686500                       # number of ReadReq miss cycles
system.cpu.dcache.ReadReq_miss_latency::total    770686500                       # number of ReadReq miss cycles
system.cpu.dcache.ReadReq_accesses::.cpu.data       144142                       # number of ReadReq accesses(hits+misses)
system.cpu.dcache.ReadReq_accesses::total       144142                       # number of ReadReq accesses(hits+misses)
system.cpu.dcache.ReadReq_miss_rate::.cpu.data     0.543041                       # miss rate for ReadReq accesses
system.cpu.dcache.ReadReq_miss_rate::total     0.543041                       # miss rate for ReadReq accesses
system.cpu.dcache.ReadReq_avg_miss_latency::.cpu.data  9845.883104                       # average ReadReq miss latency
system.cpu.dcache.ReadReq_avg_miss_latency::total  9845.883104                       # average ReadReq miss latency
system.cpu.dcache.ReadReq_mshr_hits::.cpu.data        62517                       # number of ReadReq MSHR hits
system.cpu.dcache.ReadReq_mshr_hits::total        62517                       # number of ReadReq MSHR hits
system.cpu.dcache.ReadReq_mshr_misses::.cpu.data        15758                       # number of ReadReq MSHR misses
system.cpu.dcache.ReadReq_mshr_misses::total        15758                       # number of ReadReq MSHR misses
system.cpu.dcache.ReadReq_mshr_miss_latency::.cpu.data    199895000                       # number of ReadReq MSHR miss cycles
system.cpu.dcache.ReadReq_mshr_miss_latency::total    199895000                       # number of ReadReq MSHR miss cycles
system.cpu.dcache.ReadReq_mshr_miss_rate::.cpu.data     0.109323                       # mshr miss rate for ReadReq accesses
system.cpu.dcache.ReadReq_mshr_miss_rate::total     0.109323                       # mshr miss rate for ReadReq accesses
system.cpu.dcache.ReadReq_avg_mshr_miss_latency::.cpu.data 12685.302703                       # average ReadReq mshr miss latency
system.cpu.dcache.ReadReq_avg_mshr_miss_latency::total 12685.302703                       # average ReadReq mshr miss latency
system.cpu.dcache.WriteReq_hits::.cpu.data      1462053                       # number of WriteReq hits
system.cpu.dcache.WriteReq_hits::total        1462053                       # number of WriteReq hits
system.cpu.dcache.WriteReq_misses::.cpu.data       737422                       # number of WriteReq misses
system.cpu.dcache.WriteReq_misses::total       737422                       # number of WriteReq misses
system.cpu.dcache.WriteReq_miss_latency::.cpu.data  10828884499                       # number of WriteReq miss cycles
system.cpu.dcache.WriteReq_miss_latency::total  10828884499                       # number of WriteReq miss cycles
system.cpu.dcache.WriteReq_accesses::.cpu.data      2199475                       # number of WriteReq accesses(hits+misses)
system.cpu.dcache.WriteReq_accesses::total      2199475                       # number of WriteReq accesses(hits+misses)
system.cpu.dcache.WriteReq_miss_rate::.cpu.data     0.335272                       # miss rate for WriteReq accesses
system.cpu.dcache.WriteReq_miss_rate::total     0.335272                       # miss rate for WriteReq accesses
system.cpu.dcache.WriteReq_avg_miss_latency::.cpu.data 14684.786322                       # average WriteReq miss latency
system.cpu.dcache.WriteReq_avg_miss_latency::total 14684.786322                       # average WriteReq miss latency
system.cpu.dcache.WriteReq_mshr_hits::.cpu.data            1                       # number of WriteReq MSHR hits
system.cpu.dcache.WriteReq_mshr_hits::total            1                       # number of WriteReq MSHR hits
system.cpu.dcache.WriteReq_mshr_misses::.cpu.data       737421                       # number of WriteReq MSHR misses
system.cpu.dcache.WriteReq_mshr_misses::total       737421                       # number of WriteReq MSHR misses
system.cpu.dcache.WriteReq_mshr_miss_latency::.cpu.data  10091367999                       # number of WriteReq MSHR miss cycles
system.cpu.dcache.WriteReq_mshr_miss_latency::total  10091367999                       # number of WriteReq MSHR miss cycles
system.cpu.dcache.WriteReq_mshr_miss_rate::.cpu.data     0.335271                       # mshr miss rate for WriteReq accesses
system.cpu.dcache.WriteReq_mshr_miss_rate::total     0.335271                       # mshr miss rate for WriteReq accesses
system.cpu.dcache.WriteReq_avg_mshr_miss_latency::.cpu.data 13684.676730                       # average WriteReq mshr miss latency
system.cpu.dcache.WriteReq_avg_mshr_miss_latency::total 13684.676730                       # average WriteReq mshr miss latency
system.cpu.dcache.power_state.pwrStateResidencyTicks::UNDEFINED  12650638500                       # Cumulative time (in ticks) in various power states
system.cpu.dcache.tags.tagsinuse          1018.599073                       # Cycle average of tags in use
system.cpu.dcache.tags.total_refs             2281099                       # Total number of references to valid blocks.
system.cpu.dcache.tags.sampled_refs            753179                       # Sample count of references to valid blocks.
system.cpu.dcache.tags.avg_refs              3.028628                       # Average number of references to valid blocks.
system.cpu.dcache.tags.warmup_cycle            176500                       # Cycle when the warmup percentage was hit.
system.cpu.dcache.tags.occ_blocks::.cpu.data  1018.599073                       # Average occupied blocks per requestor
system.cpu.dcache.tags.occ_percent::.cpu.data     0.994726                       # Average percentage of cache occupancy
system.cpu.dcache.tags.occ_percent::total     0.994726                       # Average percentage of cache occupancy
system.cpu.dcache.tags.occ_task_id_blocks::1024         1024                       # Occupied blocks per task id
system.cpu.dcache.tags.age_task_id_blocks_1024::0          357                       # Occupied blocks per task id
system.cpu.dcache.tags.age_task_id_blocks_1024::1          667                       # Occupied blocks per task id
system.cpu.dcache.tags.occ_task_id_percent::1024            1                       # Percentage of cache occupancy per task id
system.cpu.dcache.tags.tag_accesses          19502115                       # Number of tag accesses
system.cpu.dcache.tags.data_accesses         19502115                       # Number of data accesses
system.cpu.dcache.tags.power_state.pwrStateResidencyTicks::UNDEFINED  12650638500                       # Cumulative time (in ticks) in various power states
system.cpu.decode.idleCycles                   682734                       # Number of cycles decode is idle
system.cpu.decode.blockedCycles              22312114                       # Number of cycles decode is blocked
system.cpu.decode.runCycles                    710385                       # Number of cycles decode is running
system.cpu.decode.unblockCycles               1557127                       # Number of cycles decode is unblocking
system.cpu.decode.squashCycles                   1224                       # Number of cycles decode is squashing
system.cpu.decode.branchResolved              2269930                       # Number of times decode resolved a  branch
system.cpu.decode.branchMispred                   221                       # Number of times decode detected a branch misprediction
system.cpu.decode.decodedInsts               17866972                       # Number of instructions handled by decode
system.cpu.decode.squashedInsts                   902                       # Number of squashed instructions handled by decode
system.cpu.dtb.rdAccesses                      144398                       # TLB accesses on read requests
system.cpu.dtb.wrAccesses                     2207011                       # TLB accesses on write requests
system.cpu.dtb.rdMisses                           498                       # TLB misses on read requests
system.cpu.dtb.wrMisses                         47837                       # TLB misses on write requests
system.cpu.dtb.walker.power_state.pwrStateResidencyTicks::UNDEFINED  12650638500                       # Cumulative time (in ticks) in various power states
system.cpu.dtb_walker_cache.blocked_cycles::no_mshrs            0                       # number of cycles access was blocked
system.cpu.dtb_walker_cache.blocked_cycles::no_targets            0                       # number of cycles access was blocked
system.cpu.dtb_walker_cache.blocked::no_mshrs            0                       # number of cycles access was blocked
system.cpu.dtb_walker_cache.blocked::no_targets            0                       # number of cycles access was blocked
system.cpu.dtb_walker_cache.avg_blocked_cycles::no_mshrs          nan                       # average number of cycles each access was blocked
system.cpu.dtb_walker_cache.avg_blocked_cycles::no_targets          nan                       # average number of cycles each access was blocked
system.cpu.dtb_walker_cache.replacements            0                       # number of replacements
system.cpu.dtb_walker_cache.power_state.pwrStateResidencyTicks::UNDEFINED  12650638500                       # Cumulative time (in ticks) in various power states
system.cpu.dtb_walker_cache.tags.tagsinuse            0                       # Cycle average of tags in use
system.cpu.dtb_walker_cache.tags.total_refs            0                       # Total number of references to valid blocks.
system.cpu.dtb_walker_cache.tags.sampled_refs            0                       # Sample count of references to valid blocks.
system.cpu.dtb_walker_cache.tags.avg_refs          nan                       # Average number of references to valid blocks.
system.cpu.dtb_walker_cache.tags.warmup_cycle            0                       # Cycle when the warmup percentage was hit.
system.cpu.dtb_walker_cache.tags.tag_accesses            0                       # Number of tag accesses
system.cpu.dtb_walker_cache.tags.data_accesses            0                       # Number of data accesses
system.cpu.dtb_walker_cache.tags.power_state.pwrStateResidencyTicks::UNDEFINED  12650638500                       # Cumulative time (in ticks) in various power states
system.cpu.fetch.icacheStallCycles             146381                       # Number of cycles fetch is stalled on an Icache miss
system.cpu.fetch.insts                       10051298                       # Number of instructions fetch has processed
system.cpu.fetch.branches                     2277375                       # Number of branches that fetch encountered
system.cpu.fetch.predictedBranches            2273235                       # Number of branches that fetch has predicted taken
system.cpu.fetch.cycles                      25114814                       # Number of cycles fetch has run and was not squashing or blocked
system.cpu.fetch.squashCycles                    2874                       # Number of cycles fetch has spent squashing
system.cpu.fetch.miscStallCycles                  134                       # Number of cycles fetch has spent waiting on interrupts,or bad addresses, or out of MSHRs
system.cpu.fetch.pendingTrapStallCycles           783                       # Number of stall cycles due to pending traps
system.cpu.fetch.pendingQuiesceStallCycles            2                       # Number of stall cycles due to pending quiesce instructions
system.cpu.fetch.icacheWaitRetryStallCycles           33                       # Number of stall cycles due to full MSHR
system.cpu.fetch.cacheLines                    130707                       # Number of cache lines fetched
system.cpu.fetch.icacheSquashes                   482                       # Number of outstanding Icache misses that were squashed
system.cpu.fetch.nisnDist::samples           25263584                       # Number of instructions fetched each cycle (Total)
system.cpu.fetch.nisnDist::mean              0.708235                       # Number of instructions fetched each cycle (Total)
system.cpu.fetch.nisnDist::stdev             1.992503                       # Number of instructions fetched each cycle (Total)
system.cpu.fetch.nisnDist::underflows               0      0.00%      0.00% # Number of instructions fetched each cycle (Total)
system.cpu.fetch.nisnDist::0                 21934221     86.82%     86.82% # Number of instructions fetched each cycle (Total)
system.cpu.fetch.nisnDist::1                   345039      1.37%     88.19% # Number of instructions fetched each cycle (Total)
system.cpu.fetch.nisnDist::2                   251924      1.00%     89.18% # Number of instructions fetched each cycle (Total)
system.cpu.fetch.nisnDist::3                   204066      0.81%     89.99% # Number of instructions fetched each cycle (Total)
system.cpu.fetch.nisnDist::4                   250988      0.99%     90.99% # Number of instructions fetched each cycle (Total)
system.cpu.fetch.nisnDist::5                   188516      0.75%     91.73% # Number of instructions fetched each cycle (Total)
system.cpu.fetch.nisnDist::6                   376352      1.49%     93.22% # Number of instructions fetched each cycle (Total)
system.cpu.fetch.nisnDist::7                  1473000      5.83%     99.05% # Number of instructions fetched each cycle (Total)
system.cpu.fetch.nisnDist::8                   239478      0.95%    100.00% # Number of instructions fetched each cycle (Total)
system.cpu.fetch.nisnDist::overflows                0      0.00%    100.00% # Number of instructions fetched each cycle (Total)
system.cpu.fetch.nisnDist::min_value                0                       # Number of instructions fetched each cycle (Total)
system.cpu.fetch.nisnDist::max_value                8                       # Number of instructions fetched each cycle (Total)
system.cpu.fetch.nisnDist::total             25263584                       # Number of instructions fetched each cycle (Total)
system.cpu.fetch.branchRate                  0.090010                       # Number of branch fetches per cycle
system.cpu.fetch.rate                        0.397264                       # Number of inst fetches per cycle
system.cpu.icache.demand_hits::.cpu.inst       130086                       # number of demand (read+write) hits
system.cpu.icache.demand_hits::total           130086                       # number of demand (read+write) hits
system.cpu.icache.overall_hits::.cpu.inst       130086                       # number of overall hits
system.cpu.icache.overall_hits::total          130086                       # number of overall hits
system.cpu.icache.demand_misses::.cpu.inst          621                       # number of demand (read+write) misses
system.cpu.icache.demand_misses::total            621                       # number of demand (read+write) misses
system.cpu.icache.overall_misses::.cpu.inst          621                       # number of overall misses
system.cpu.icache.overall_misses::total           621                       # number of overall misses
system.cpu.icache.demand_miss_latency::.cpu.inst     47591999                       # number of demand (read+write) miss cycles
system.cpu.icache.demand_miss_latency::total     47591999                       # number of demand (read+write) miss cycles
system.cpu.icache.overall_miss_latency::.cpu.inst     47591999                       # number of overall miss cycles
system.cpu.icache.overall_miss_latency::total     47591999                       # number of overall miss cycles
system.cpu.icache.demand_accesses::.cpu.inst       130707                       # number of demand (read+write) accesses
system.cpu.icache.demand_accesses::total       130707                       # number of demand (read+write) accesses
system.cpu.icache.overall_accesses::.cpu.inst       130707                       # number of overall (read+write) accesses
system.cpu.icache.overall_accesses::total       130707                       # number of overall (read+write) accesses
system.cpu.icache.demand_miss_rate::.cpu.inst     0.004751                       # miss rate for demand accesses
system.cpu.icache.demand_miss_rate::total     0.004751                       # miss rate for demand accesses
system.cpu.icache.overall_miss_rate::.cpu.inst     0.004751                       # miss rate for overall accesses
system.cpu.icache.overall_miss_rate::total     0.004751                       # miss rate for overall accesses
system.cpu.icache.demand_avg_miss_latency::.cpu.inst 76637.679549                       # average overall miss latency
system.cpu.icache.demand_avg_miss_latency::total 76637.679549                       # average overall miss latency
system.cpu.icache.overall_avg_miss_latency::.cpu.inst 76637.679549                       # average overall miss latency
system.cpu.icache.overall_avg_miss_latency::total 76637.679549                       # average overall miss latency
system.cpu.icache.blocked_cycles::no_mshrs          887                       # number of cycles access was blocked
system.cpu.icache.blocked_cycles::no_targets            0                       # number of cycles access was blocked
system.cpu.icache.blocked::no_mshrs                 5                       # number of cycles access was blocked
system.cpu.icache.blocked::no_targets               0                       # number of cycles access was blocked
system.cpu.icache.avg_blocked_cycles::no_mshrs   177.400000                       # average number of cycles each access was blocked
system.cpu.icache.avg_blocked_cycles::no_targets          nan                       # average number of cycles each access was blocked
system.cpu.icache.writebacks::.writebacks           24                       # number of writebacks
system.cpu.icache.writebacks::total                24                       # number of writebacks
system.cpu.icache.demand_mshr_hits::.cpu.inst          135                       # number of demand (read+write) MSHR hits
system.cpu.icache.demand_mshr_hits::total          135                       # number of demand (read+write) MSHR hits
system.cpu.icache.overall_mshr_hits::.cpu.inst          135                       # number of overall MSHR hits
system.cpu.icache.overall_mshr_hits::total          135                       # number of overall MSHR hits
system.cpu.icache.demand_mshr_misses::.cpu.inst          486                       # number of demand (read+write) MSHR misses
system.cpu.icache.demand_mshr_misses::total          486                       # number of demand (read+write) MSHR misses
system.cpu.icache.overall_mshr_misses::.cpu.inst          486                       # number of overall MSHR misses
system.cpu.icache.overall_mshr_misses::total          486                       # number of overall MSHR misses
system.cpu.icache.demand_mshr_miss_latency::.cpu.inst     39375999                       # number of demand (read+write) MSHR miss cycles
system.cpu.icache.demand_mshr_miss_latency::total     39375999                       # number of demand (read+write) MSHR miss cycles
system.cpu.icache.overall_mshr_miss_latency::.cpu.inst     39375999                       # number of overall MSHR miss cycles
system.cpu.icache.overall_mshr_miss_latency::total     39375999                       # number of overall MSHR miss cycles
system.cpu.icache.demand_mshr_miss_rate::.cpu.inst     0.003718                       # mshr miss rate for demand accesses
system.cpu.icache.demand_mshr_miss_rate::total     0.003718                       # mshr miss rate for demand accesses
system.cpu.icache.overall_mshr_miss_rate::.cpu.inst     0.003718                       # mshr miss rate for overall accesses
system.cpu.icache.overall_mshr_miss_rate::total     0.003718                       # mshr miss rate for overall accesses
system.cpu.icache.demand_avg_mshr_miss_latency::.cpu.inst 81020.574074                       # average overall mshr miss latency
system.cpu.icache.demand_avg_mshr_miss_latency::total 81020.574074                       # average overall mshr miss latency
system.cpu.icache.overall_avg_mshr_miss_latency::.cpu.inst 81020.574074                       # average overall mshr miss latency
system.cpu.icache.overall_avg_mshr_miss_latency::total 81020.574074                       # average overall mshr miss latency
system.cpu.icache.replacements                     24                       # number of replacements
system.cpu.icache.ReadReq_hits::.cpu.inst       130086                       # number of ReadReq hits
system.cpu.icache.ReadReq_hits::total          130086                       # number of ReadReq hits
system.cpu.icache.ReadReq_misses::.cpu.inst          621                       # number of ReadReq misses
system.cpu.icache.ReadReq_misses::total           621                       # number of ReadReq misses
system.cpu.icache.ReadReq_miss_latency::.cpu.inst     47591999                       # number of ReadReq miss cycles
system.cpu.icache.ReadReq_miss_latency::total     47591999                       # number of ReadReq miss cycles
system.cpu.icache.ReadReq_accesses::.cpu.inst       130707                       # number of ReadReq accesses(hits+misses)
system.cpu.icache.ReadReq_accesses::total       130707                       # number of ReadReq accesses(hits+misses)
system.cpu.icache.ReadReq_miss_rate::.cpu.inst     0.004751                       # miss rate for ReadReq accesses
system.cpu.icache.ReadReq_miss_rate::total     0.004751                       # miss rate for ReadReq accesses
system.cpu.icache.ReadReq_avg_miss_latency::.cpu.inst 76637.679549                       # average ReadReq miss latency
system.cpu.icache.ReadReq_avg_miss_latency::total 76637.679549                       # average ReadReq miss latency
system.cpu.icache.ReadReq_mshr_hits::.cpu.inst          135                       # number of ReadReq MSHR hits
system.cpu.icache.ReadReq_mshr_hits::total          135                       # number of ReadReq MSHR hits
system.cpu.icache.ReadReq_mshr_misses::.cpu.inst          486                       # number of ReadReq MSHR misses
system.cpu.icache.ReadReq_mshr_misses::total          486                       # number of ReadReq MSHR misses
system.cpu.icache.ReadReq_mshr_miss_latency::.cpu.inst     39375999                       # number of ReadReq MSHR miss cycles
system.cpu.icache.ReadReq_mshr_miss_latency::total     39375999                       # number of ReadReq MSHR miss cycles
system.cpu.icache.ReadReq_mshr_miss_rate::.cpu.inst     0.003718                       # mshr miss rate for ReadReq accesses
system.cpu.icache.ReadReq_mshr_miss_rate::total     0.003718                       # mshr miss rate for ReadReq accesses
system.cpu.icache.ReadReq_avg_mshr_miss_latency::.cpu.inst 81020.574074                       # average ReadReq mshr miss latency
system.cpu.icache.ReadReq_avg_mshr_miss_latency::total 81020.574074                       # average ReadReq mshr miss latency
system.cpu.icache.power_state.pwrStateResidencyTicks::UNDEFINED  12650638500                       # Cumulative time (in ticks) in various power states
system.cpu.icache.tags.tagsinuse           418.343089                       # Cycle average of tags in use
system.cpu.icache.tags.total_refs              130571                       # Total number of references to valid blocks.
system.cpu.icache.tags.sampled_refs               485                       # Sample count of references to valid blocks.
system.cpu.icache.tags.avg_refs            269.218557                       # Average number of references to valid blocks.
system.cpu.icache.tags.warmup_cycle             87500                       # Cycle when the warmup percentage was hit.
system.cpu.icache.tags.occ_blocks::.cpu.inst   418.343089                       # Average occupied blocks per requestor
system.cpu.icache.tags.occ_percent::.cpu.inst     0.408538                       # Average percentage of cache occupancy
system.cpu.icache.tags.occ_percent::total     0.408538                       # Average percentage of cache occupancy
system.cpu.icache.tags.occ_task_id_blocks::1024          461                       # Occupied blocks per task id
system.cpu.icache.tags.age_task_id_blocks_1024::0           44                       # Occupied blocks per task id
system.cpu.icache.tags.age_task_id_blocks_1024::2            1                       # Occupied blocks per task id
system.cpu.icache.tags.age_task_id_blocks_1024::4          416                       # Occupied blocks per task id
system.cpu.icache.tags.occ_task_id_percent::1024     0.450195                       # Percentage of cache occupancy per task id
system.cpu.icache.tags.tag_accesses            261899                       # Number of tag accesses
system.cpu.icache.tags.data_accesses           261899                       # Number of data accesses
system.cpu.icache.tags.power_state.pwrStateResidencyTicks::UNDEFINED  12650638500                       # Cumulative time (in ticks) in various power states
system.cpu.interrupts.clk_domain.clock           8000                       # Clock period in ticks
system.cpu.itb.rdAccesses                           0                       # TLB accesses on read requests
system.cpu.itb.wrAccesses                      130846                       # TLB accesses on write requests
system.cpu.itb.rdMisses                             0                       # TLB misses on read requests
system.cpu.itb.wrMisses                           184                       # TLB misses on write requests
system.cpu.itb.walker.power_state.pwrStateResidencyTicks::UNDEFINED  12650638500                       # Cumulative time (in ticks) in various power states
system.cpu.itb_walker_cache.blocked_cycles::no_mshrs            0                       # number of cycles access was blocked
system.cpu.itb_walker_cache.blocked_cycles::no_targets            0                       # number of cycles access was blocked
system.cpu.itb_walker_cache.blocked::no_mshrs            0                       # number of cycles access was blocked
system.cpu.itb_walker_cache.blocked::no_targets            0                       # number of cycles access was blocked
system.cpu.itb_walker_cache.avg_blocked_cycles::no_mshrs          nan                       # average number of cycles each access was blocked
system.cpu.itb_walker_cache.avg_blocked_cycles::no_targets          nan                       # average number of cycles each access was blocked
system.cpu.itb_walker_cache.replacements            0                       # number of replacements
system.cpu.itb_walker_cache.power_state.pwrStateResidencyTicks::UNDEFINED  12650638500                       # Cumulative time (in ticks) in various power states
system.cpu.itb_walker_cache.tags.tagsinuse            0                       # Cycle average of tags in use
system.cpu.itb_walker_cache.tags.total_refs            0                       # Total number of references to valid blocks.
system.cpu.itb_walker_cache.tags.sampled_refs            0                       # Sample count of references to valid blocks.
system.cpu.itb_walker_cache.tags.avg_refs          nan                       # Average number of references to valid blocks.
system.cpu.itb_walker_cache.tags.warmup_cycle            0                       # Cycle when the warmup percentage was hit.
system.cpu.itb_walker_cache.tags.tag_accesses            0                       # Number of tag accesses
system.cpu.itb_walker_cache.tags.data_accesses            0                       # Number of data accesses
system.cpu.itb_walker_cache.tags.power_state.pwrStateResidencyTicks::UNDEFINED  12650638500                       # Cumulative time (in ticks) in various power states
system.cpu.lsq0.forwLoads                         191                       # Number of loads that had data forwarded from stores
system.cpu.lsq0.squashedLoads                    1745                       # Number of loads squashed
system.cpu.lsq0.ignoredResponses                    2                       # Number of memory responses ignored because the instruction is squashed
system.cpu.lsq0.memOrderViolation                  11                       # Number of memory ordering violations
system.cpu.lsq0.squashedStores                   8044                       # Number of stores squashed
system.cpu.lsq0.rescheduledLoads                    0                       # Number of loads that were rescheduled
system.cpu.lsq0.blockedByCache                     15                       # Number of times an access to memory failed due to the cache being blocked
system.cpu.power_state.pwrStateResidencyTicks::ON  12650638500                       # Cumulative time (in ticks) in various power states
system.cpu.rename.squashCycles                   1224                       # Number of cycles rename is squashing
system.cpu.rename.idleCycles                  1169161                       # Number of cycles rename is idle
system.cpu.rename.blockCycles                 6404789                       # Number of cycles rename is blocking
system.cpu.rename.serializeStallCycles             34                       # count of cycles rename stalledfor serializing inst
system.cpu.rename.runCycles                   1765440                       # Number of cycles rename is running
system.cpu.rename.unblockCycles              15922936                       # Number of cycles rename is unblocking
system.cpu.rename.renamedInsts               17863260                       # Number of instructions processed by rename
system.cpu.rename.ROBFullEvents                   752                       # Number of times rename has blocked due to ROB full
system.cpu.rename.IQFullEvents                  46865                       # Number of times rename has blocked due to IQ full
system.cpu.rename.LQFullEvents                      1                       # Number of times rename has blocked due to LQ full
system.cpu.rename.SQFullEvents               15667959                       # Number of times rename has blocked due to SQ full
system.cpu.rename.renamedOperands            22471351                       # Number of destination operands rename has renamed
system.cpu.rename.lookups                    45381859                       # Number of register rename lookups that rename has made
system.cpu.rename.intLookups                 22754429                       # Number of integer rename lookups
system.cpu.rename.fpLookups                   4376754                       # Number of floating rename lookups
system.cpu.rename.committedMaps              22385329                       # Number of HB maps that are committed
system.cpu.rename.undoneMaps                    86016                       # Number of HB maps that are undone due to squashing
system.cpu.rename.serializing                       3                       # count of serializing insts renamed
system.cpu.rename.tempSerializing                   3                       # count of temporary serializing insts renamed
system.cpu.rename.skidInsts                   8373135                       # count of insts added to the skid buffer
system.cpu.rob.reads                         42755076                       # The number of ROB reads
system.cpu.rob.writes                        35726533                       # The number of ROB writes
system.cpu.thread_0.numInsts                  9995921                       # Number of Instructions committed
system.cpu.thread_0.numOps                   17794161                       # Number of Ops committed
system.cpu.thread_0.numMemRefs                      0                       # Number of Memory References
system.cpu_clk_domain.clock                       500                       # Clock period in ticks
system.cpu_voltage_domain.voltage                   1                       # Voltage in Volts
system.l2.demand_hits::.cpu.inst                    4                       # number of demand (read+write) hits
system.l2.demand_hits::.cpu.data               737320                       # number of demand (read+write) hits
system.l2.demand_hits::total                   737324                       # number of demand (read+write) hits
system.l2.overall_hits::.cpu.inst                   4                       # number of overall hits
system.l2.overall_hits::.cpu.data              737320                       # number of overall hits
system.l2.overall_hits::total                  737324                       # number of overall hits
system.l2.demand_misses::.cpu.inst                482                       # number of demand (read+write) misses
system.l2.demand_misses::.cpu.data              15859                       # number of demand (read+write) misses
system.l2.demand_misses::total                  16341                       # number of demand (read+write) misses
system.l2.overall_misses::.cpu.inst               482                       # number of overall misses
system.l2.overall_misses::.cpu.data             15859                       # number of overall misses
system.l2.overall_misses::total                 16341                       # number of overall misses
system.l2.demand_miss_latency::.cpu.inst     38602000                       # number of demand (read+write) miss cycles
system.l2.demand_miss_latency::.cpu.data   1169916000                       # number of demand (read+write) miss cycles
system.l2.demand_miss_latency::total       1208518000                       # number of demand (read+write) miss cycles
system.l2.overall_miss_latency::.cpu.inst     38602000                       # number of overall miss cycles
system.l2.overall_miss_latency::.cpu.data   1169916000                       # number of overall miss cycles
system.l2.overall_miss_latency::total      1208518000                       # number of overall miss cycles
system.l2.demand_accesses::.cpu.inst              486                       # number of demand (read+write) accesses
system.l2.demand_accesses::.cpu.data           753179                       # number of demand (read+write) accesses
system.l2.demand_accesses::total               753665                       # number of demand (read+write) accesses
system.l2.overall_accesses::.cpu.inst             486                       # number of overall (read+write) accesses
system.l2.overall_accesses::.cpu.data          753179                       # number of overall (read+write) accesses
system.l2.overall_accesses::total              753665                       # number of overall (read+write) accesses
system.l2.demand_miss_rate::.cpu.inst        0.991770                       # miss rate for demand accesses
system.l2.demand_miss_rate::.cpu.data        0.021056                       # miss rate for demand accesses
system.l2.demand_miss_rate::total            0.021682                       # miss rate for demand accesses
system.l2.overall_miss_rate::.cpu.inst       0.991770                       # miss rate for overall accesses
system.l2.overall_miss_rate::.cpu.data       0.021056                       # miss rate for overall accesses
system.l2.overall_miss_rate::total           0.021682                       # miss rate for overall accesses
system.l2.demand_avg_miss_latency::.cpu.inst 80087.136929                       # average overall miss latency
system.l2.demand_avg_miss_latency::.cpu.data 73769.846775                       # average overall miss latency
system.l2.demand_avg_miss_latency::total 73956.183832                       # average overall miss latency
system.l2.overall_avg_miss_latency::.cpu.inst 80087.136929                       # average overall miss latency
system.l2.overall_avg_miss_latency::.cpu.data 73769.846775                       # average overall miss latency
system.l2.overall_avg_miss_latency::total 73956.183832                       # average overall miss latency
system.l2.blocked_cycles::no_mshrs                  0                       # number of cycles access was blocked
system.l2.blocked_cycles::no_targets                0                       # number of cycles access was blocked
[...]
system.mem_ctrls.dram.bw_total::.cpu.data     80231207                       # Total bandwidth to/from this memory (bytes/s)
system.mem_ctrls.dram.bw_total::total        82720252                       # Total bandwidth to/from this memory (bytes/s)
system.mem_ctrls.dram.readBursts                16338                       # Number of DRAM read bursts
system.mem_ctrls.dram.writeBursts                   0                       # Number of DRAM write bursts
system.mem_ctrls.dram.perBankRdBursts::0          992                       # Per bank write bursts
system.mem_ctrls.dram.perBankRdBursts::1          990                       # Per bank write bursts
system.mem_ctrls.dram.perBankRdBursts::2          911                       # Per bank write bursts
system.mem_ctrls.dram.perBankRdBursts::3          941                       # Per bank write bursts
system.mem_ctrls.dram.perBankRdBursts::4         1036                       # Per bank write bursts
system.mem_ctrls.dram.perBankRdBursts::5         1029                       # Per bank write bursts
system.mem_ctrls.dram.perBankRdBursts::6         1102                       # Per bank write bursts
system.mem_ctrls.dram.perBankRdBursts::7         1050                       # Per bank write bursts
system.mem_ctrls.dram.perBankRdBursts::8         1053                       # Per bank write bursts
system.mem_ctrls.dram.perBankRdBursts::9         1037                       # Per bank write bursts
system.mem_ctrls.dram.perBankRdBursts::10         1035                       # Per bank write bursts
system.mem_ctrls.dram.perBankRdBursts::11         1063                       # Per bank write bursts
system.mem_ctrls.dram.perBankRdBursts::12         1074                       # Per bank write bursts
system.mem_ctrls.dram.perBankRdBursts::13         1041                       # Per bank write bursts
system.mem_ctrls.dram.perBankRdBursts::14          978                       # Per bank write bursts
system.mem_ctrls.dram.perBankRdBursts::15         1006                       # Per bank write bursts
system.mem_ctrls.dram.perBankWrBursts::0            0                       # Per bank write bursts
system.mem_ctrls.dram.perBankWrBursts::1            0                       # Per bank write bursts
system.mem_ctrls.dram.perBankWrBursts::2            0                       # Per bank write bursts
system.mem_ctrls.dram.perBankWrBursts::3            0                       # Per bank write bursts
system.mem_ctrls.dram.perBankWrBursts::4            0                       # Per bank write bursts
system.mem_ctrls.dram.perBankWrBursts::5            0                       # Per bank write bursts
system.mem_ctrls.dram.perBankWrBursts::6            0                       # Per bank write bursts
system.mem_ctrls.dram.perBankWrBursts::7            0                       # Per bank write bursts
system.mem_ctrls.dram.perBankWrBursts::8            0                       # Per bank write bursts
system.mem_ctrls.dram.perBankWrBursts::9            0                       # Per bank write bursts
system.mem_ctrls.dram.perBankWrBursts::10            0                       # Per bank write bursts
system.mem_ctrls.dram.perBankWrBursts::11            0                       # Per bank write bursts
system.mem_ctrls.dram.perBankWrBursts::12            0                       # Per bank write bursts
system.mem_ctrls.dram.perBankWrBursts::13            0                       # Per bank write bursts
system.mem_ctrls.dram.perBankWrBursts::14            0                       # Per bank write bursts
system.mem_ctrls.dram.perBankWrBursts::15            0                       # Per bank write bursts
system.mem_ctrls.dram.totQLat                72280750                       # Total ticks spent queuing
system.mem_ctrls.dram.totBusLat              81690000                       # Total ticks spent in databus transfers
system.mem_ctrls.dram.totMemAccLat          378618250                       # Total ticks spent from burst creation until serviced by the DRAM
system.mem_ctrls.dram.avgQLat                 4424.09                       # Average queueing delay per DRAM burst
system.mem_ctrls.dram.avgBusLat               5000.00                       # Average bus latency per DRAM burst
system.mem_ctrls.dram.avgMemAccLat           23174.09                       # Average memory access latency per DRAM burst
system.mem_ctrls.dram.readRowHits               15012                       # Number of row buffer hits during reads
system.mem_ctrls.dram.writeRowHits                  0                       # Number of row buffer hits during writes
system.mem_ctrls.dram.readRowHitRate            91.88                       # Row buffer hit rate for reads
system.mem_ctrls.dram.writeRowHitRate             nan                       # Row buffer hit rate for writes
system.mem_ctrls.dram.bytesPerActivate::samples         1317                       # Bytes accessed per row activation
system.mem_ctrls.dram.bytesPerActivate::mean   792.200456                       # Bytes accessed per row activation
system.mem_ctrls.dram.bytesPerActivate::gmean   638.553659                       # Bytes accessed per row activation
system.mem_ctrls.dram.bytesPerActivate::stdev   343.609036                       # Bytes accessed per row activation
system.mem_ctrls.dram.bytesPerActivate::0-127           92      6.99%      6.99% # Bytes accessed per row activation
system.mem_ctrls.dram.bytesPerActivate::128-255           84      6.38%     13.36% # Bytes accessed per row activation
system.mem_ctrls.dram.bytesPerActivate::256-383           48      3.64%     17.01% # Bytes accessed per row activation
system.mem_ctrls.dram.bytesPerActivate::384-511           42      3.19%     20.20% # Bytes accessed per row activation
system.mem_ctrls.dram.bytesPerActivate::512-639          130      9.87%     30.07% # Bytes accessed per row activation
system.mem_ctrls.dram.bytesPerActivate::640-767           28      2.13%     32.19% # Bytes accessed per row activation
system.mem_ctrls.dram.bytesPerActivate::768-895           34      2.58%     34.78% # Bytes accessed per row activation
system.mem_ctrls.dram.bytesPerActivate::896-1023           30      2.28%     37.05% # Bytes accessed per row activation
system.mem_ctrls.dram.bytesPerActivate::1024-1151          829     62.95%    100.00% # Bytes accessed per row activation
system.mem_ctrls.dram.bytesPerActivate::total         1317                       # Bytes accessed per row activation
system.mem_ctrls.dram.bytesRead               1045632                       # Total number of bytes read from DRAM
system.mem_ctrls.dram.bytesWritten                  0                       # Total number of bytes written to DRAM
system.mem_ctrls.dram.avgRdBW               82.654484                       # Average DRAM read bandwidth in MiBytes/s
system.mem_ctrls.dram.avgWrBW                       0                       # Average DRAM write bandwidth in MiBytes/s
system.mem_ctrls.dram.peakBW                 12800.00                       # Theoretical peak bandwidth in MiByte/s
system.mem_ctrls.dram.busUtil                    0.65                       # Data bus utilization in percentage
system.mem_ctrls.dram.busUtilRead                0.65                       # Data bus utilization in percentage for reads
system.mem_ctrls.dram.busUtilWrite               0.00                       # Data bus utilization in percentage for writes
system.mem_ctrls.dram.pageHitRate               91.88                       # Row buffer hit rate, read and write combined
system.mem_ctrls.dram.power_state.pwrStateResidencyTicks::UNDEFINED  12650638500                       # Cumulative time (in ticks) in various power states
system.mem_ctrls.dram.rank0.actEnergy         4790940                       # Energy for activate commands per rank (pJ)
system.mem_ctrls.dram.rank0.preEnergy         2531265                       # Energy for precharge commands per rank (pJ)
system.mem_ctrls.dram.rank0.readEnergy       57484140                       # Energy for read commands per rank (pJ)
system.mem_ctrls.dram.rank0.writeEnergy             0                       # Energy for write commands per rank (pJ)
system.mem_ctrls.dram.rank0.refreshEnergy 998175360.000000                       # Energy for refresh commands per rank (pJ)
system.mem_ctrls.dram.rank0.actBackEnergy    565115100                       # Energy for active background per rank (pJ)
system.mem_ctrls.dram.rank0.preBackEnergy   4381958880                       # Energy for precharge background per rank (pJ)
system.mem_ctrls.dram.rank0.actPowerDownEnergy            0                       # Energy for active power-down per rank (pJ)
system.mem_ctrls.dram.rank0.prePowerDownEnergy            0                       # Energy for precharge power-down per rank (pJ)
system.mem_ctrls.dram.rank0.selfRefreshEnergy            0                       # Energy for self refresh per rank (pJ)
system.mem_ctrls.dram.rank0.totalEnergy    6010055685                       # Total energy per rank (pJ)
system.mem_ctrls.dram.rank0.averagePower   475.079237                       # Core power per rank (mW)
system.mem_ctrls.dram.rank0.totalIdleTime            0                       # Total Idle time Per DRAM Rank
system.mem_ctrls.dram.rank0.pwrStateTime::IDLE  11383340250                       # Time in different power states
system.mem_ctrls.dram.rank0.pwrStateTime::REF    422240000                       # Time in different power states
system.mem_ctrls.dram.rank0.pwrStateTime::SREF            0                       # Time in different power states
system.mem_ctrls.dram.rank0.pwrStateTime::PRE_PDN            0                       # Time in different power states
system.mem_ctrls.dram.rank0.pwrStateTime::ACT    845058250                       # Time in different power states
system.mem_ctrls.dram.rank0.pwrStateTime::ACT_PDN            0                       # Time in different power states
system.mem_ctrls.dram.rank1.actEnergy         4676700                       # Energy for activate commands per rank (pJ)
system.mem_ctrls.dram.rank1.preEnergy         2466750                       # Energy for precharge commands per rank (pJ)
system.mem_ctrls.dram.rank1.readEnergy       59169180                       # Energy for read commands per rank (pJ)
system.mem_ctrls.dram.rank1.writeEnergy             0                       # Energy for write commands per rank (pJ)
system.mem_ctrls.dram.rank1.refreshEnergy 998175360.000000                       # Energy for refresh commands per rank (pJ)
system.mem_ctrls.dram.rank1.actBackEnergy    572198490                       # Energy for active background per rank (pJ)
system.mem_ctrls.dram.rank1.preBackEnergy   4375993920                       # Energy for precharge background per rank (pJ)
system.mem_ctrls.dram.rank1.actPowerDownEnergy            0                       # Energy for active power-down per rank (pJ)
system.mem_ctrls.dram.rank1.prePowerDownEnergy            0                       # Energy for precharge power-down per rank (pJ)
system.mem_ctrls.dram.rank1.selfRefreshEnergy            0                       # Energy for self refresh per rank (pJ)
system.mem_ctrls.dram.rank1.totalEnergy    6012680400                       # Total energy per rank (pJ)
system.mem_ctrls.dram.rank1.averagePower   475.286714                       # Core power per rank (mW)
system.mem_ctrls.dram.rank1.totalIdleTime            0                       # Total Idle time Per DRAM Rank
system.mem_ctrls.dram.rank1.pwrStateTime::IDLE  11367077500                       # Time in different power states
system.mem_ctrls.dram.rank1.pwrStateTime::REF    422240000                       # Time in different power states
system.mem_ctrls.dram.rank1.pwrStateTime::SREF            0                       # Time in different power states
system.mem_ctrls.dram.rank1.pwrStateTime::PRE_PDN            0                       # Time in different power states
system.mem_ctrls.dram.rank1.pwrStateTime::ACT    861321000                       # Time in different power states
system.mem_ctrls.dram.rank1.pwrStateTime::ACT_PDN            0                       # Time in different power states
system.mem_ctrls.power_state.pwrStateResidencyTicks::UNDEFINED  12650638500                       # Cumulative time (in ticks) in various power states
system.membus.trans_dist::ReadResp                610                       # Transaction distribution
system.membus.trans_dist::WritebackDirty           11                       # Transaction distribution
system.membus.trans_dist::CleanEvict                8                       # Transaction distribution
system.membus.trans_dist::ReadExReq             15730                       # Transaction distribution
system.membus.trans_dist::ReadExResp            15730                       # Transaction distribution
system.membus.trans_dist::ReadSharedReq           610                       # Transaction distribution
system.membus.pkt_count_system.l2.mem_side_port::system.mem_ctrls.port        32699                       # Packet count per connected requestor and responder (bytes)
system.membus.pkt_count_system.l2.mem_side_port::total        32699                       # Packet count per connected requestor and responder (bytes)
system.membus.pkt_count::total                  32699                       # Packet count per connected requestor and responder (bytes)
system.membus.pkt_size_system.l2.mem_side_port::system.mem_ctrls.port      1046464                       # Cumulative packet size per connected requestor and responder (bytes)
system.membus.pkt_size_system.l2.mem_side_port::total      1046464                       # Cumulative packet size per connected requestor and responder (bytes)
system.membus.pkt_size::total                 1046464                       # Cumulative packet size per connected requestor and responder (bytes)
system.membus.snoops                                0                       # Total snoops (count)
system.membus.snoopTraffic                          0                       # Total snoop traffic (bytes)
system.membus.snoop_fanout::samples             16340                       # Request fanout histogram
system.membus.snoop_fanout::mean                    0                       # Request fanout histogram
system.membus.snoop_fanout::stdev                   0                       # Request fanout histogram
system.membus.snoop_fanout::underflows              0      0.00%      0.00% # Request fanout histogram
system.membus.snoop_fanout::0                   16340    100.00%    100.00% # Request fanout histogram
system.membus.snoop_fanout::1                       0      0.00%    100.00% # Request fanout histogram
system.membus.snoop_fanout::overflows               0      0.00%    100.00% # Request fanout histogram
system.membus.snoop_fanout::min_value               0                       # Request fanout histogram
system.membus.snoop_fanout::max_value               0                       # Request fanout histogram
system.membus.snoop_fanout::total               16340                       # Request fanout histogram
system.membus.power_state.pwrStateResidencyTicks::UNDEFINED  12650638500                       # Cumulative time (in ticks) in various power states
system.membus.reqLayer2.occupancy            16681000                       # Layer occupancy (ticks)
system.membus.reqLayer2.utilization               0.1                       # Layer utilization (%)
system.membus.respLayer1.occupancy           86090500                       # Layer occupancy (ticks)
system.membus.respLayer1.utilization              0.7                       # Layer utilization (%)
system.tol2bus.trans_dist::ReadResp             16243                       # Transaction distribution
system.tol2bus.trans_dist::WritebackDirty       752080                       # Transaction distribution
system.tol2bus.trans_dist::WritebackClean           24                       # Transaction distribution
system.tol2bus.trans_dist::CleanEvict             520                       # Transaction distribution
system.tol2bus.trans_dist::ReadExReq           737421                       # Transaction distribution
system.tol2bus.trans_dist::ReadExResp          737421                       # Transaction distribution
system.tol2bus.trans_dist::ReadCleanReq           486                       # Transaction distribution
system.tol2bus.trans_dist::ReadSharedReq        15758                       # Transaction distribution
system.tol2bus.pkt_count_system.cpu.icache.mem_side_port::system.l2.cpu_side_port          995                       # Packet count per connected requestor and responder (bytes)
system.tol2bus.pkt_count_system.cpu.dcache.mem_side_port::system.l2.cpu_side_port      2258513                       # Packet count per connected requestor and responder (bytes)
system.tol2bus.pkt_count::total               2259508                       # Packet count per connected requestor and responder (bytes)
system.tol2bus.pkt_size_system.cpu.icache.mem_side_port::system.l2.cpu_side_port        32576                       # Cumulative packet size per connected requestor and responder (bytes)
system.tol2bus.pkt_size_system.cpu.dcache.mem_side_port::system.l2.cpu_side_port     96335872                       # Cumulative packet size per connected requestor and responder (bytes)
system.tol2bus.pkt_size::total               96368448                       # Cumulative packet size per connected requestor and responder (bytes)
system.tol2bus.snoops                             445                       # Total snoops (count)
system.tol2bus.snoopTraffic                       704                       # Total snoop traffic (bytes)
system.tol2bus.snoop_fanout::samples           754110                       # Request fanout histogram
system.tol2bus.snoop_fanout::mean            0.000576                       # Request fanout histogram
system.tol2bus.snoop_fanout::stdev           0.023983                       # Request fanout histogram
system.tol2bus.snoop_fanout::underflows             0      0.00%      0.00% # Request fanout histogram
system.tol2bus.snoop_fanout::0                 753676     99.94%     99.94% # Request fanout histogram
system.tol2bus.snoop_fanout::1                    434      0.06%    100.00% # Request fanout histogram
system.tol2bus.snoop_fanout::2                      0      0.00%    100.00% # Request fanout histogram
system.tol2bus.snoop_fanout::3                      0      0.00%    100.00% # Request fanout histogram
system.tol2bus.snoop_fanout::4                      0      0.00%    100.00% # Request fanout histogram
system.tol2bus.snoop_fanout::overflows              0      0.00%    100.00% # Request fanout histogram
system.tol2bus.snoop_fanout::min_value              0                       # Request fanout histogram
system.tol2bus.snoop_fanout::max_value              1                       # Request fanout histogram
system.tol2bus.snoop_fanout::total             754110                       # Request fanout histogram
system.tol2bus.power_state.pwrStateResidencyTicks::UNDEFINED  12650638500                       # Cumulative time (in ticks) in various power states
system.tol2bus.reqLayer0.occupancy         1505015000                       # Layer occupancy (ticks)
system.tol2bus.reqLayer0.utilization             11.9                       # Layer utilization (%)
system.tol2bus.respLayer0.occupancy            727500                       # Layer occupancy (ticks)
system.tol2bus.respLayer0.utilization             0.0                       # Layer utilization (%)
system.tol2bus.respLayer1.occupancy        1129768500                       # Layer occupancy (ticks)
system.tol2bus.respLayer1.utilization             8.9                       # Layer utilization (%)
system.voltage_domain.voltage                       1                       # Voltage in Volts

---------- End Simulation Statistics   ----------
