
---------- Begin Simulation Statistics ----------
final_tick                                13058910500                       # Number of ticks from beginning of simulation (restored from checkpoints and never reset)
host_inst_rate                                 159744                       # Simulator instruction rate (inst/s)
host_mem_usage                                 656884                       # Number of bytes of host memory used
host_op_rate                                   284366                       # Simulator op (including micro ops) rate (op/s)
host_seconds                                    62.57                       # Real time elapsed on the host
host_tick_rate                              208692688                       # Simulator tick rate (ticks/s)
sim_freq                                 1000000000000                       # Frequency of simulated ticks
sim_insts                                     9995921                       # Number of instructions simulated
sim_ops                                      17794161                       # Number of ops (including micro ops) simulated
sim_seconds                                  0.013059                       # Number of seconds simulated
sim_ticks                                 13058910500                       # Number of ticks simulated
system.cpu.cc_regfile_reads                  11359566                       # number of cc regfile reads
system.cpu.cc_regfile_writes                  9085756                       # number of cc regfile writes
system.cpu.committedInsts                     9995921                       # Number of Instructions Simulated
system.cpu.committedOps                      17794161                       # Number of Ops (including micro ops) Simulated
system.cpu.cpi                               2.612848                       # CPI: Cycles Per Instruction
system.cpu.cpi_total                         2.612848                       # CPI: Total CPI of All Threads
system.cpu.fp_regfile_reads                   4376526                       # number of floating regfile reads
system.cpu.fp_regfile_writes                  2000718                       # number of floating regfile writes
system.cpu.idleCycles                           38581                       # Total number of cycles that the CPU has spent unscheduled due to idling
system.cpu.iew.branchMispredicts                 1100                       # Number of branch mispredicts detected at execute
system.cpu.iew.exec_branches                  2272119                       # Number of branches executed
system.cpu.iew.exec_nop                             0                       # number of nop insts executed
system.cpu.iew.exec_rate                     0.683692                       # Inst execution rate
system.cpu.iew.exec_refs                      2335980                       # number of memory reference insts executed
system.cpu.iew.exec_stores                    2207016                       # Number of stores executed
system.cpu.iew.exec_swp                             0                       # number of swp insts executed
system.cpu.iew.iewBlockCycles                  149699                       # Number of cycles IEW is blocking
system.cpu.iew.iewDispLoadInsts                129424                       # Number of dispatched load instructions
system.cpu.iew.iewDispNonSpecInsts                 17                       # Number of dispatched non-speculative instructions
system.cpu.iew.iewDispSquashedInsts                21                       # Number of squashed instructions skipped by dispatch
system.cpu.iew.iewDispStoreInsts              2207521                       # Number of dispatched store instructions
system.cpu.iew.iewDispatchedInsts            17861638                       # Number of instructions dispatched to IQ
system.cpu.iew.iewExecLoadInsts                128964                       # Number of load instructions executed
system.cpu.iew.iewExecSquashedInsts              1181                       # Number of squashed instructions skipped in execute
system.cpu.iew.iewExecutedInsts              17856539                       # Number of executed instructions
system.cpu.iew.iewIQFullEvents                  31215                       # Number of times the IQ has become full, causing a stall
system.cpu.iew.iewIdleCycles                        0                       # Number of cycles IEW is idle
system.cpu.iew.iewLSQFullEvents               6523777                       # Number of times the LSQ has become full, causing a stall
system.cpu.iew.iewSquashCycles                   1230                       # Number of cycles IEW is squashing
system.cpu.iew.iewUnblockCycles               6570511                       # Number of cycles IEW is unblocking
system.cpu.iew.memOrderViolationEvents             11                       # Number of memory order violations
system.cpu.iew.predictedNotTakenIncorrect          731                       # Number of branches that were predicted not taken incorrectly
system.cpu.iew.predictedTakenIncorrect            369                       # Number of branches that were predicted taken incorrectly
system.cpu.iew.wb_consumers                  18131974                       # num instructions consuming a value
system.cpu.iew.wb_count                      17848925                       # cumulative count of insts written-back
system.cpu.iew.wb_fanout                     0.656557                       # average fanout of values written-back
system.cpu.iew.wb_producers                  11904676                       # num instructions producing a value
system.cpu.iew.wb_rate                       0.683400                       # insts written-back per cycle
system.cpu.iew.wb_sent                       17856122                       # cumulative count of insts sent to commit
system.cpu.int_regfile_reads                 22742466                       # number of integer regfile reads
system.cpu.int_regfile_writes                11376853                       # number of integer regfile writes
system.cpu.ipc                               0.382724                       # IPC: Instructions Per Cycle
system.cpu.ipc_total                         0.382724                       # IPC: Total IPC of All Threads
system.cpu.iq.FU_type_0::No_OpClass               783      0.00%      0.00% # Type of FU issued
system.cpu.iq.FU_type_0::IntAlu              14018720     78.50%     78.51% # Type of FU issued
system.cpu.iq.FU_type_0::IntMult                 1334      0.01%     78.51% # Type of FU issued
system.cpu.iq.FU_type_0::IntDiv                    28      0.00%     78.51% # Type of FU issued
system.cpu.iq.FU_type_0::FloatAdd                 145      0.00%     78.52% # Type of FU issued
system.cpu.iq.FU_type_0::FloatCmp                   0      0.00%     78.52% # Type of FU issued
system.cpu.iq.FU_type_0::FloatCvt                   0      0.00%     78.52% # Type of FU issued
system.cpu.iq.FU_type_0::FloatMult                  0      0.00%     78.52% # Type of FU issued
system.cpu.iq.FU_type_0::FloatMultAcc               0      0.00%     78.52% # Type of FU issued
system.cpu.iq.FU_type_0::FloatDiv                   0      0.00%     78.52% # Type of FU issued
system.cpu.iq.FU_type_0::FloatMisc                  0      0.00%     78.52% # Type of FU issued
system.cpu.iq.FU_type_0::FloatSqrt                  0      0.00%     78.52% # Type of FU issued
system.cpu.iq.FU_type_0::SimdAdd               499996      2.80%     81.32% # Type of FU issued
system.cpu.iq.FU_type_0::SimdAddAcc                 0      0.00%     81.32% # Type of FU issued
system.cpu.iq.FU_type_0::SimdAlu               125172      0.70%     82.02% # Type of FU issued
system.cpu.iq.FU_type_0::SimdCmp                    0      0.00%     82.02% # Type of FU issued
system.cpu.iq.FU_type_0::SimdCvt               125046      0.70%     82.72% # Type of FU issued
system.cpu.iq.FU_type_0::SimdMisc              750207      4.20%     86.92% # Type of FU issued
system.cpu.iq.FU_type_0::SimdMult                   0      0.00%     86.92% # Type of FU issued
system.cpu.iq.FU_type_0::SimdMultAcc                0      0.00%     86.92% # Type of FU issued
system.cpu.iq.FU_type_0::SimdShift                 13      0.00%     86.92% # Type of FU issued
system.cpu.iq.FU_type_0::SimdShiftAcc               0      0.00%     86.92% # Type of FU issued
system.cpu.iq.FU_type_0::SimdDiv                    0      0.00%     86.92% # Type of FU issued
system.cpu.iq.FU_type_0::SimdSqrt                   0      0.00%     86.92% # Type of FU issued
system.cpu.iq.FU_type_0::SimdFloatAdd               0      0.00%     86.92% # Type of FU issued
system.cpu.iq.FU_type_0::SimdFloatAlu               0      0.00%     86.92% # Type of FU issued
system.cpu.iq.FU_type_0::SimdFloatCmp               0      0.00%     86.92% # Type of FU issued
system.cpu.iq.FU_type_0::SimdFloatCvt               0      0.00%     86.92% # Type of FU issued
system.cpu.iq.FU_type_0::SimdFloatDiv               0      0.00%     86.92% # Type of FU issued
system.cpu.iq.FU_type_0::SimdFloatMisc              0      0.00%     86.92% # Type of FU issued
system.cpu.iq.FU_type_0::SimdFloatMult              0      0.00%     86.92% # Type of FU issued
system.cpu.iq.FU_type_0::SimdFloatMultAcc            0      0.00%     86.92% # Type of FU issued
system.cpu.iq.FU_type_0::SimdFloatSqrt              0      0.00%     86.92% # Type of FU issued
system.cpu.iq.FU_type_0::SimdReduceAdd              0      0.00%     86.92% # Type of FU issued
system.cpu.iq.FU_type_0::SimdReduceAlu              0      0.00%     86.92% # Type of FU issued
system.cpu.iq.FU_type_0::SimdReduceCmp              0      0.00%     86.92% # Type of FU issued
system.cpu.iq.FU_type_0::SimdFloatReduceAdd            0      0.00%     86.92% # Type of FU issued
system.cpu.iq.FU_type_0::SimdFloatReduceCmp            0      0.00%     86.92% # Type of FU issued
system.cpu.iq.FU_type_0::SimdAes                    0      0.00%     86.92% # Type of FU issued
system.cpu.iq.FU_type_0::SimdAesMix                 0      0.00%     86.92% # Type of FU issued
system.cpu.iq.FU_type_0::SimdSha1Hash               0      0.00%     86.92% # Type of FU issued
system.cpu.iq.FU_type_0::SimdSha1Hash2              0      0.00%     86.92% # Type of FU issued
system.cpu.iq.FU_type_0::SimdSha256Hash             0      0.00%     86.92% # Type of FU issued
system.cpu.iq.FU_type_0::SimdSha256Hash2            0      0.00%     86.92% # Type of FU issued
system.cpu.iq.FU_type_0::SimdShaSigma2              0      0.00%     86.92% # Type of FU issued
system.cpu.iq.FU_type_0::SimdShaSigma3              0      0.00%     86.92% # Type of FU issued
system.cpu.iq.FU_type_0::SimdPredAlu                0      0.00%     86.92% # Type of FU issued
system.cpu.iq.FU_type_0::MemRead                 4099      0.02%     86.94% # Type of FU issued
system.cpu.iq.FU_type_0::MemWrite             2206585     12.36%     99.30% # Type of FU issued
system.cpu.iq.FU_type_0::FloatMemRead          125064      0.70%    100.00% # Type of FU issued
system.cpu.iq.FU_type_0::FloatMemWrite            528      0.00%    100.00% # Type of FU issued
system.cpu.iq.FU_type_0::IprAccess                  0      0.00%    100.00% # Type of FU issued
system.cpu.iq.FU_type_0::InstPrefetch               0      0.00%    100.00% # Type of FU issued
system.cpu.iq.FU_type_0::total               17857720                       # Type of FU issued
system.cpu.iq.fp_alu_accesses                 2282312                       # Number of floating point alu accesses
system.cpu.iq.fp_inst_queue_reads             4283627                       # Number of floating instruction queue reads
system.cpu.iq.fp_inst_queue_wakeup_accesses      2001285                       # Number of floating instruction queue wakeup accesses
system.cpu.iq.fp_inst_queue_writes            2001626                       # Number of floating instruction queue writes
system.cpu.iq.fu_busy_cnt                      336164                       # FU busy when requested
system.cpu.iq.fu_busy_rate                   0.018825                       # FU busy rate (busy events/executed inst)
system.cpu.iq.fu_full::No_OpClass                   0      0.00%      0.00% # attempts to use FU when none available
system.cpu.iq.fu_full::IntAlu                   55105     16.39%     16.39% # attempts to use FU when none available
system.cpu.iq.fu_full::IntMult                      0      0.00%     16.39% # attempts to use FU when none available
system.cpu.iq.fu_full::IntDiv                       0      0.00%     16.39% # attempts to use FU when none available
system.cpu.iq.fu_full::FloatAdd                     0      0.00%     16.39% # attempts to use FU when none available
system.cpu.iq.fu_full::FloatCmp                     0      0.00%     16.39% # attempts to use FU when none available
system.cpu.iq.fu_full::FloatCvt                     0      0.00%     16.39% # attempts to use FU when none available
system.cpu.iq.fu_full::FloatMult                    0      0.00%     16.39% # attempts to use FU when none available
system.cpu.iq.fu_full::FloatMultAcc                 0      0.00%     16.39% # attempts to use FU when none available
system.cpu.iq.fu_full::FloatDiv                     0      0.00%     16.39% # attempts to use FU when none available
system.cpu.iq.fu_full::FloatMisc                    0      0.00%     16.39% # attempts to use FU when none available
system.cpu.iq.fu_full::FloatSqrt                    0      0.00%     16.39% # attempts to use FU when none available
system.cpu.iq.fu_full::SimdAdd                      0      0.00%     16.39% # attempts to use FU when none available
system.cpu.iq.fu_full::SimdAddAcc                   0      0.00%     16.39% # attempts to use FU when none available
system.cpu.iq.fu_full::SimdAlu                  93655     27.86%     44.25% # attempts to use FU when none available
system.cpu.iq.fu_full::SimdCmp                      0      0.00%     44.25% # attempts to use FU when none available
system.cpu.iq.fu_full::SimdCvt                 124866     37.14%     81.40% # attempts to use FU when none available
system.cpu.iq.fu_full::SimdMisc                 62473     18.58%     99.98% # attempts to use FU when none available
system.cpu.iq.fu_full::SimdMult                     0      0.00%     99.98% # attempts to use FU when none available
system.cpu.iq.fu_full::SimdMultAcc                  0      0.00%     99.98% # attempts to use FU when none available
system.cpu.iq.fu_full::SimdShift                    0      0.00%     99.98% # attempts to use FU when none available
system.cpu.iq.fu_full::SimdShiftAcc                 0      0.00%     99.98% # attempts to use FU when none available
system.cpu.iq.fu_full::SimdDiv                      0      0.00%     99.98% # attempts to use FU when none available
system.cpu.iq.fu_full::SimdSqrt                     0      0.00%     99.98% # attempts to use FU when none available
system.cpu.iq.fu_full::SimdFloatAdd                 0      0.00%     99.98% # attempts to use FU when none available
system.cpu.iq.fu_full::SimdFloatAlu                 0      0.00%     99.98% # attempts to use FU when none available
system.cpu.iq.fu_full::SimdFloatCmp                 0      0.00%     99.98% # attempts to use FU when none available
system.cpu.iq.fu_full::SimdFloatCvt                 0      0.00%     99.98% # attempts to use FU when none available
system.cpu.iq.fu_full::SimdFloatDiv                 0      0.00%     99.98% # attempts to use FU when none available
system.cpu.iq.fu_full::SimdFloatMisc                0      0.00%     99.98% # attempts to use FU when none available
system.cpu.iq.fu_full::SimdFloatMult                0      0.00%     99.98% # attempts to use FU when none available
system.cpu.iq.fu_full::SimdFloatMultAcc             0      0.00%     99.98% # attempts to use FU when none available
system.cpu.iq.fu_full::SimdFloatSqrt                0      0.00%     99.98% # attempts to use FU when none available
system.cpu.iq.fu_full::SimdReduceAdd                0      0.00%     99.98% # attempts to use FU when none available
system.cpu.iq.fu_full::SimdReduceAlu                0      0.00%     99.98% # attempts to use FU when none available
system.cpu.iq.fu_full::SimdReduceCmp                0      0.00%     99.98% # attempts to use FU when none available
system.cpu.iq.fu_full::SimdFloatReduceAdd            0      0.00%     99.98% # attempts to use FU when none available
system.cpu.iq.fu_full::SimdFloatReduceCmp            0      0.00%     99.98% # attempts to use FU when none available
system.cpu.iq.fu_full::SimdAes                      0      0.00%     99.98% # attempts to use FU when none available
system.cpu.iq.fu_full::SimdAesMix                   0      0.00%     99.98% # attempts to use FU when none available
system.cpu.iq.fu_full::SimdSha1Hash                 0      0.00%     99.98% # attempts to use FU when none available
system.cpu.iq.fu_full::SimdSha1Hash2                0      0.00%     99.98% # attempts to use FU when none available
system.cpu.iq.fu_full::SimdSha256Hash               0      0.00%     99.98% # attempts to use FU when none available
system.cpu.iq.fu_full::SimdSha256Hash2              0      0.00%     99.98% # attempts to use FU when none available
system.cpu.iq.fu_full::SimdShaSigma2                0      0.00%     99.98% # attempts to use FU when none available
system.cpu.iq.fu_full::SimdShaSigma3                0      0.00%     99.98% # attempts to use FU when none available
system.cpu.iq.fu_full::SimdPredAlu                  0      0.00%     99.98% # attempts to use FU when none available
system.cpu.iq.fu_full::MemRead                     35      0.01%     99.99% # attempts to use FU when none available
system.cpu.iq.fu_full::MemWrite                    21      0.01%    100.00% # attempts to use FU when none available
system.cpu.iq.fu_full::FloatMemRead                 2      0.00%    100.00% # attempts to use FU when none available
system.cpu.iq.fu_full::FloatMemWrite                7      0.00%    100.00% # attempts to use FU when none available
system.cpu.iq.fu_full::IprAccess                    0      0.00%    100.00% # attempts to use FU when none available
system.cpu.iq.fu_full::InstPrefetch                 0      0.00%    100.00% # attempts to use FU when none available
system.cpu.iq.int_alu_accesses               15910789                       # Number of integer alu accesses
system.cpu.iq.int_inst_queue_reads           57847291                       # Number of integer instruction queue reads
system.cpu.iq.int_inst_queue_wakeup_accesses     15847640                       # Number of integer instruction queue wakeup accesses
system.cpu.iq.int_inst_queue_writes          15927493                       # Number of integer instruction queue writes
system.cpu.iq.iqInstsAdded                   17861589                       # Number of instructions added to the IQ (excludes non-spec)
system.cpu.iq.iqInstsIssued                  17857720                       # Number of instructions issued
system.cpu.iq.iqNonSpecInstsAdded                  49                       # Number of non-speculative instructions added to the IQ
system.cpu.iq.iqSquashedInstsExamined           67471                       # Number of squashed instructions iterated over during squash; mainly for profiling
system.cpu.iq.iqSquashedInstsIssued                73                       # Number of squashed instructions issued
system.cpu.iq.iqSquashedNonSpecRemoved             37                       # Number of squashed non-spec instructions that were removed
system.cpu.iq.iqSquashedOperandsExamined        45871                       # Number of squashed operands that are examined and possibly removed from graph
system.cpu.iq.issued_per_cycle::samples      26079241                       # Number of insts issued each cycle
system.cpu.iq.issued_per_cycle::mean         0.684748                       # Number of insts issued each cycle
system.cpu.iq.issued_per_cycle::stdev        1.514258                       # Number of insts issued each cycle
system.cpu.iq.issued_per_cycle::underflows            0      0.00%      0.00% # Number of insts issued each cycle
system.cpu.iq.issued_per_cycle::0            20428206     78.33%     78.33% # Number of insts issued each cycle
system.cpu.iq.issued_per_cycle::1             1003646      3.85%     82.18% # Number of insts issued each cycle
system.cpu.iq.issued_per_cycle::2             1570658      6.02%     88.20% # Number of insts issued each cycle
system.cpu.iq.issued_per_cycle::3              605938      2.32%     90.53% # Number of insts issued each cycle
system.cpu.iq.issued_per_cycle::4             1038911      3.98%     94.51% # Number of insts issued each cycle
system.cpu.iq.issued_per_cycle::5             1018150      3.90%     98.41% # Number of insts issued each cycle
system.cpu.iq.issued_per_cycle::6              325934      1.25%     99.66% # Number of insts issued each cycle
system.cpu.iq.issued_per_cycle::7                9438      0.04%     99.70% # Number of insts issued each cycle
system.cpu.iq.issued_per_cycle::8               78360      0.30%    100.00% # Number of insts issued each cycle
system.cpu.iq.issued_per_cycle::overflows            0      0.00%    100.00% # Number of insts issued each cycle
system.cpu.iq.issued_per_cycle::min_value            0                       # Number of insts issued each cycle
system.cpu.iq.issued_per_cycle::max_value            8                       # Number of insts issued each cycle
system.cpu.iq.issued_per_cycle::total        26079241                       # Number of insts issued each cycle
system.cpu.iq.rate                           0.683737                       # Inst issue rate
system.cpu.iq.vec_alu_accesses                      0                       # Number of vector alu accesses
system.cpu.iq.vec_inst_queue_reads                  0                       # Number of vector instruction queue reads
system.cpu.iq.vec_inst_queue_wakeup_accesses            0                       # Number of vector instruction queue wakeup accesses
system.cpu.iq.vec_inst_queue_writes                 0                       # Number of vector instruction queue writes
system.cpu.memDep0.conflictingLoads                38                       # Number of conflicting loads.
system.cpu.memDep0.conflictingStores               19                       # Number of conflicting stores.
system.cpu.memDep0.insertedLoads               129424                       # Number of loads inserted to the mem dependence unit.
system.cpu.memDep0.insertedStores             2207521                       # Number of stores inserted to the mem dependence unit.
system.cpu.misc_regfile_reads                 6881540                       # number of misc regfile reads
system.cpu.numCycles                         26117822                       # number of cpu cycles simulated
system.cpu.numWorkItemsCompleted                    0                       # number of work items this cpu completed
system.cpu.numWorkItemsStarted                      0                       # number of work items this cpu started
system.cpu.timesIdled                             311                       # Number of times that the entire CPU went into an idle state and unscheduled itself
system.cpu.workload.numSyscalls                    11                       # Number of system calls
system.membus.snoop_filter.hit_multi_requests            0                       # Number of requests hitting in the snoop filter with multiple (>1) holders of the requested data.
system.membus.snoop_filter.hit_multi_snoops            0                       # Number of snoops hitting in the snoop filter with multiple (>1) holders of the requested data.
system.membus.snoop_filter.hit_single_requests         1233                       # Number of requests hitting in the snoop filter with a single holder of the requested data.
system.membus.snoop_filter.hit_single_snoops            0                       # Number of snoops hitting in the snoop filter with a single holder of the requested data.
system.membus.snoop_filter.tot_requests         18740                       # Total number of requests made to the snoop filter.
system.membus.snoop_filter.tot_snoops               0                       # Total number of snoops made to the snoop filter.
system.tol2bus.snoop_filter.hit_multi_requests            0                       # Number of requests hitting in the snoop filter with multiple (>1) holders of the requested data.
system.tol2bus.snoop_filter.hit_multi_snoops            0                       # Number of snoops hitting in the snoop filter with multiple (>1) holders of the requested data.
system.tol2bus.snoop_filter.hit_single_requests       777533                       # Number of requests hitting in the snoop filter with a single holder of the requested data.
system.tol2bus.snoop_filter.hit_single_snoops          103                       # Number of snoops hitting in the snoop filter with a single holder of the requested data.
system.tol2bus.snoop_filter.tot_requests      1556552                       # Total number of requests made to the snoop filter.
system.tol2bus.snoop_filter.tot_snoops            103                       # Total number of snoops made to the snoop filter.
system.clk_domain.clock                          1000                       # Clock period in ticks
system.cpu.branchPred.lookups                 2277787                       # Number of BP lookups
system.cpu.branchPred.condPredicted           2276553                       # Number of conditional branches predicted
system.cpu.branchPred.condIncorrect              1049                       # Number of conditional branches incorrect
system.cpu.branchPred.BTBLookups              2273960                       # Number of BTB lookups
system.cpu.branchPred.BTBHits                 2273159                       # Number of BTB hits
system.cpu.branchPred.BTBHitPct             99.964775                       # BTB Hit Percentage
system.cpu.branchPred.RASUsed                     302                       # Number of times the RAS was used to get a target.
system.cpu.branchPred.RASIncorrect                  0                       # Number of incorrect RAS predictions.
system.cpu.branchPred.indirectLookups             285                       # Number of indirect predictor lookups.
system.cpu.branchPred.indirectHits                 16                       # Number of indirect target hits.
system.cpu.branchPred.indirectMisses              269                       # Number of indirect misses.
system.cpu.branchPred.indirectMispredicted           90                       # Number of mispredicted indirect branches.
system.cpu.commit.commitSquashedInsts           67672                       # The number of squashed insts skipped by commit
system.cpu.commit.commitNonSpecStalls              12                       # The number of times commit has been forced to stall to communicate backwards
system.cpu.commit.branchMispredicts               962                       # The number of times a branch was mispredicted
system.cpu.commit.numCommittedDist::samples     26070137                       # Number of insts commited each cycle
system.cpu.commit.numCommittedDist::mean     0.682550                       # Number of insts commited each cycle
system.cpu.commit.numCommittedDist::stdev     1.538150                       # Number of insts commited each cycle
system.cpu.commit.numCommittedDist::underflows            0      0.00%      0.00% # Number of insts commited each cycle
system.cpu.commit.numCommittedDist::0        20515619     78.69%     78.69% # Number of insts commited each cycle
system.cpu.commit.numCommittedDist::1          242104      0.93%     79.62% # Number of insts commited each cycle
system.cpu.commit.numCommittedDist::2         2258678      8.66%     88.29% # Number of insts commited each cycle
system.cpu.commit.numCommittedDist::3         1476675      5.66%     93.95% # Number of insts commited each cycle
system.cpu.commit.numCommittedDist::4          724456      2.78%     96.73% # Number of insts commited each cycle
system.cpu.commit.numCommittedDist::5          287297      1.10%     97.83% # Number of insts commited each cycle
system.cpu.commit.numCommittedDist::6           43002      0.16%     98.00% # Number of insts commited each cycle
system.cpu.commit.numCommittedDist::7          166093      0.64%     98.63% # Number of insts commited each cycle
system.cpu.commit.numCommittedDist::8          356213      1.37%    100.00% # Number of insts commited each cycle
system.cpu.commit.numCommittedDist::overflows            0      0.00%    100.00% # Number of insts commited each cycle
system.cpu.commit.numCommittedDist::min_value            0                       # Number of insts commited each cycle
system.cpu.commit.numCommittedDist::max_value            8                       # Number of insts commited each cycle
system.cpu.commit.numCommittedDist::total     26070137                       # Number of insts commited each cycle
system.cpu.commit.instsCommitted              9995921                       # Number of instructions committed
system.cpu.commit.opsCommitted               17794161                       # Number of ops (including micro ops) committed
system.cpu.commit.memRefs                     2327019                       # Number of memory references committed
system.cpu.commit.loads                        127545                       # Number of loads committed
system.cpu.commit.amos                              0                       # Number of atomic instructions committed
system.cpu.commit.membars                           8                       # Number of memory barriers committed
system.cpu.commit.branches                    2264230                       # Number of branches committed
system.cpu.commit.vector                            0                       # Number of committed Vector instructions.
system.cpu.commit.floating                    2001126                       # Number of committed floating point instructions.
system.cpu.commit.integer                    15918412                       # Number of committed integer instructions.
system.cpu.commit.functionCalls                   148                       # Number of function calls committed.
system.cpu.commit.committedInstType_0::No_OpClass          287      0.00%      0.00% # Class of committed instruction
system.cpu.commit.committedInstType_0::IntAlu     13965345     78.48%     78.48% # Class of committed instruction
system.cpu.commit.committedInstType_0::IntMult         1004      0.01%     78.49% # Class of committed instruction
system.cpu.commit.committedInstType_0::IntDiv           21      0.00%     78.49% # Class of committed instruction
system.cpu.commit.committedInstType_0::FloatAdd          135      0.00%     78.49% # Class of committed instruction
system.cpu.commit.committedInstType_0::FloatCmp            0      0.00%     78.49% # Class of committed instruction
system.cpu.commit.committedInstType_0::FloatCvt            0      0.00%     78.49% # Class of committed instruction
system.cpu.commit.committedInstType_0::FloatMult            0      0.00%     78.49% # Class of committed instruction
system.cpu.commit.committedInstType_0::FloatMultAcc            0      0.00%     78.49% # Class of committed instruction
system.cpu.commit.committedInstType_0::FloatDiv            0      0.00%     78.49% # Class of committed instruction
system.cpu.commit.committedInstType_0::FloatMisc            0      0.00%     78.49% # Class of committed instruction
system.cpu.commit.committedInstType_0::FloatSqrt            0      0.00%     78.49% # Class of committed instruction
system.cpu.commit.committedInstType_0::SimdAdd       499996      2.81%     81.30% # Class of committed instruction
system.cpu.commit.committedInstType_0::SimdAddAcc            0      0.00%     81.30% # Class of committed instruction
system.cpu.commit.committedInstType_0::SimdAlu       125100      0.70%     82.00% # Class of committed instruction
system.cpu.commit.committedInstType_0::SimdCmp            0      0.00%     82.00% # Class of committed instruction
system.cpu.commit.committedInstType_0::SimdCvt       125044      0.70%     82.71% # Class of committed instruction
system.cpu.commit.committedInstType_0::SimdMisc       750204      4.22%     86.92% # Class of committed instruction
system.cpu.commit.committedInstType_0::SimdMult            0      0.00%     86.92% # Class of committed instruction
system.cpu.commit.committedInstType_0::SimdMultAcc            0      0.00%     86.92% # Class of committed instruction
system.cpu.commit.committedInstType_0::SimdShift            6      0.00%     86.92% # Class of committed instruction
system.cpu.commit.committedInstType_0::SimdShiftAcc            0      0.00%     86.92% # Class of committed instruction
system.cpu.commit.committedInstType_0::SimdDiv            0      0.00%     86.92% # Class of committed instruction
system.cpu.commit.committedInstType_0::SimdSqrt            0      0.00%     86.92% # Class of committed instruction
system.cpu.commit.committedInstType_0::SimdFloatAdd            0      0.00%     86.92% # Class of committed instruction
system.cpu.commit.committedInstType_0::SimdFloatAlu            0      0.00%     86.92% # Class of committed instruction
system.cpu.commit.committedInstType_0::SimdFloatCmp            0      0.00%     86.92% # Class of committed instruction
system.cpu.commit.committedInstType_0::SimdFloatCvt            0      0.00%     86.92% # Class of committed instruction
system.cpu.commit.committedInstType_0::SimdFloatDiv            0      0.00%     86.92% # Class of committed instruction
system.cpu.commit.committedInstType_0::SimdFloatMisc            0      0.00%     86.92% # Class of committed instruction
system.cpu.commit.committedInstType_0::SimdFloatMult            0      0.00%     86.92% # Class of committed instruction
system.cpu.commit.committedInstType_0::SimdFloatMultAcc            0      0.00%     86.92% # Class of committed instruction
system.cpu.commit.committedInstType_0::SimdFloatSqrt            0      0.00%     86.92% # Class of committed instruction
system.cpu.commit.committedInstType_0::SimdReduceAdd            0      0.00%     86.92% # Class of committed instruction
system.cpu.commit.committedInstType_0::SimdReduceAlu            0      0.00%     86.92% # Class of committed instruction
system.cpu.commit.committedInstType_0::SimdReduceCmp            0      0.00%     86.92% # Class of committed instruction
system.cpu.commit.committedInstType_0::SimdFloatReduceAdd            0      0.00%     86.92% # Class of committed instruction
system.cpu.commit.committedInstType_0::SimdFloatReduceCmp            0      0.00%     86.92% # Class of committed instruction
system.cpu.commit.committedInstType_0::SimdAes            0      0.00%     86.92% # Class of committed instruction
system.cpu.commit.committedInstType_0::SimdAesMix            0      0.00%     86.92% # Class of committed instruction
system.cpu.commit.committedInstType_0::SimdSha1Hash            0      0.00%     86.92% # Class of committed instruction
system.cpu.commit.committedInstType_0::SimdSha1Hash2            0      0.00%     86.92% # Class of committed instruction
system.cpu.commit.committedInstType_0::SimdSha256Hash            0      0.00%     86.92% # Class of committed instruction
system.cpu.commit.committedInstType_0::SimdSha256Hash2            0      0.00%     86.92% # Class of committed instruction
system.cpu.commit.committedInstType_0::SimdShaSigma2            0      0.00%     86.92% # Class of committed instruction
system.cpu.commit.committedInstType_0::SimdShaSigma3            0      0.00%     86.92% # Class of committed instruction
system.cpu.commit.committedInstType_0::SimdPredAlu            0      0.00%     86.92% # Class of committed instruction
system.cpu.commit.committedInstType_0::MemRead         2499      0.01%     86.94% # Class of committed instruction
system.cpu.commit.committedInstType_0::MemWrite      2199016     12.36%     99.29% # Class of committed instruction
system.cpu.commit.committedInstType_0::FloatMemRead       125046      0.70%    100.00% # Class of committed instruction
system.cpu.commit.committedInstType_0::FloatMemWrite          458      0.00%    100.00% # Class of committed instruction
system.cpu.commit.committedInstType_0::IprAccess            0      0.00%    100.00% # Class of committed instruction
system.cpu.commit.committedInstType_0::InstPrefetch            0      0.00%    100.00% # Class of committed instruction
system.cpu.commit.committedInstType_0::total     17794161                       # Class of committed instruction
system.cpu.commit.commitEligibleSamples        356213                       # number cycles where commit BW limit reached
system.cpu.dcache.demand_hits::.cpu.data      1502130                       # number of demand (read+write) hits
system.cpu.dcache.demand_hits::total          1502130                       # number of demand (read+write) hits
system.cpu.dcache.overall_hits::.cpu.data      1502130                       # number of overall hits
system.cpu.dcache.overall_hits::total         1502130                       # number of overall hits
system.cpu.dcache.demand_misses::.cpu.data       841615                       # number of demand (read+write) misses
system.cpu.dcache.demand_misses::total         841615                       # number of demand (read+write) misses
system.cpu.dcache.overall_misses::.cpu.data       841615                       # number of overall misses
system.cpu.dcache.overall_misses::total        841615                       # number of overall misses
system.cpu.dcache.demand_miss_latency::.cpu.data  12040159499                       # number of demand (read+write) miss cycles
system.cpu.dcache.demand_miss_latency::total  12040159499                       # number of demand (read+write) miss cycles
system.cpu.dcache.overall_miss_latency::.cpu.data  12040159499                       # number of overall miss cycles
system.cpu.dcache.overall_miss_latency::total  12040159499                       # number of overall miss cycles
system.cpu.dcache.demand_accesses::.cpu.data      2343745                       # number of demand (read+write) accesses
system.cpu.dcache.demand_accesses::total      2343745                       # number of demand (read+write) accesses
system.cpu.dcache.overall_accesses::.cpu.data      2343745                       # number of overall (read+write) accesses
system.cpu.dcache.overall_accesses::total      2343745                       # number of overall (read+write) accesses
system.cpu.dcache.demand_miss_rate::.cpu.data     0.359090                       # miss rate for demand accesses
system.cpu.dcache.demand_miss_rate::total     0.359090                       # miss rate for demand accesses
system.cpu.dcache.overall_miss_rate::.cpu.data     0.359090                       # miss rate for overall accesses
system.cpu.dcache.overall_miss_rate::total     0.359090                       # miss rate for overall accesses
system.cpu.dcache.demand_avg_miss_latency::.cpu.data 14306.018190                       # average overall miss latency
system.cpu.dcache.demand_avg_miss_latency::total 14306.018190                       # average overall miss latency
system.cpu.dcache.overall_avg_miss_latency::.cpu.data 14306.018190                       # average overall miss latency
system.cpu.dcache.overall_avg_miss_latency::total 14306.018190                       # average overall miss latency
system.cpu.dcache.blocked_cycles::no_mshrs         1661                       # number of cycles access was blocked
system.cpu.dcache.blocked_cycles::no_targets            0                       # number of cycles access was blocked
system.cpu.dcache.blocked::no_mshrs                19                       # number of cycles access was blocked
system.cpu.dcache.blocked::no_targets               0                       # number of cycles access was blocked
system.cpu.dcache.avg_blocked_cycles::no_mshrs    87.421053                       # average number of cycles each access was blocked
system.cpu.dcache.avg_blocked_cycles::no_targets          nan                       # average number of cycles each access was blocked
system.cpu.dcache.writebacks::.writebacks       777430                       # number of writebacks
system.cpu.dcache.writebacks::total            777430                       # number of writebacks
system.cpu.dcache.demand_mshr_hits::.cpu.data        63082                       # number of demand (read+write) MSHR hits
system.cpu.dcache.demand_mshr_hits::total        63082                       # number of demand (read+write) MSHR hits
system.cpu.dcache.overall_mshr_hits::.cpu.data        63082                       # number of overall MSHR hits
system.cpu.dcache.overall_mshr_hits::total        63082                       # number of overall MSHR hits
system.cpu.dcache.demand_mshr_misses::.cpu.data       778533                       # number of demand (read+write) MSHR misses
system.cpu.dcache.demand_mshr_misses::total       778533                       # number of demand (read+write) MSHR misses
system.cpu.dcache.overall_mshr_misses::.cpu.data       778533                       # number of overall MSHR misses
system.cpu.dcache.overall_mshr_misses::total       778533                       # number of overall MSHR misses
system.cpu.dcache.demand_mshr_miss_latency::.cpu.data  10701477499                       # number of demand (read+write) MSHR miss cycles
system.cpu.dcache.demand_mshr_miss_latency::total  10701477499                       # number of demand (read+write) MSHR miss cycles
system.cpu.dcache.overall_mshr_miss_latency::.cpu.data  10701477499                       # number of overall MSHR miss cycles
system.cpu.dcache.overall_mshr_miss_latency::total  10701477499                       # number of overall MSHR miss cycles
system.cpu.dcache.demand_mshr_miss_rate::.cpu.data     0.332175                       # mshr miss rate for demand accesses
system.cpu.dcache.demand_mshr_miss_rate::total     0.332175                       # mshr miss rate for demand accesses
system.cpu.dcache.overall_mshr_miss_rate::.cpu.data     0.332175                       # mshr miss rate for overall accesses
system.cpu.dcache.overall_mshr_miss_rate::total     0.332175                       # mshr miss rate for overall accesses
system.cpu.dcache.demand_avg_mshr_miss_latency::.cpu.data 13745.695428                       # average overall mshr miss latency
system.cpu.dcache.demand_avg_mshr_miss_latency::total 13745.695428                       # average overall mshr miss latency
system.cpu.dcache.overall_avg_mshr_miss_latency::.cpu.data 13745.695428                       # average overall mshr miss latency
system.cpu.dcache.overall_avg_mshr_miss_latency::total 13745.695428                       # average overall mshr miss latency
system.cpu.dcache.replacements                 777509                       # number of replacements
system.cpu.dcache.ReadReq_hits::.cpu.data        65287                       # number of ReadReq hits
system.cpu.dcache.ReadReq_hits::total           65287                       # number of ReadReq hits
system.cpu.dcache.ReadReq_misses::.cpu.data        78983                       # number of ReadReq misses
system.cpu.dcache.ReadReq_misses::total         78983                       # number of ReadReq misses
system.cpu.dcache.ReadReq_miss_latency::.cpu.data    778401000                       # number of ReadReq miss cycles
system.cpu.dcache.ReadReq_miss_latency::total    778401000                       # number of ReadReq miss cycles
system.cpu.dcache.ReadReq_accesses::.cpu.data       144270                       # number of ReadReq accesses(hits+misses)
system.cpu.dcache.ReadReq_accesses::total       144270                       # number of ReadReq accesses(hits+misses)
system.cpu.dcache.ReadReq_miss_rate::.cpu.data     0.547467                       # miss rate for ReadReq accesses
system.cpu.dcache.ReadReq_miss_rate::total     0.547467                       # miss rate for ReadReq accesses
system.cpu.dcache.ReadReq_avg_miss_latency::.cpu.data  9855.297976                       # average ReadReq miss latency
system.cpu.dcache.ReadReq_avg_miss_latency::total  9855.297976                       # average ReadReq miss latency
system.cpu.dcache.ReadReq_mshr_hits::.cpu.data        63081                       # number of ReadReq MSHR hits
system.cpu.dcache.ReadReq_mshr_hits::total        63081                       # number of ReadReq MSHR hits
system.cpu.dcache.ReadReq_mshr_misses::.cpu.data        15902                       # number of ReadReq MSHR misses
system.cpu.dcache.ReadReq_mshr_misses::total        15902                       # number of ReadReq MSHR misses
system.cpu.dcache.ReadReq_mshr_miss_latency::.cpu.data    202445500                       # number of ReadReq MSHR miss cycles
system.cpu.dcache.ReadReq_mshr_miss_latency::total    202445500                       # number of ReadReq MSHR miss cycles
system.cpu.dcache.ReadReq_mshr_miss_rate::.cpu.data     0.110224                       # mshr miss rate for ReadReq accesses
system.cpu.dcache.ReadReq_mshr_miss_rate::total     0.110224                       # mshr miss rate for ReadReq accesses
system.cpu.dcache.ReadReq_avg_mshr_miss_latency::.cpu.data 12730.820023                       # average ReadReq mshr miss latency
system.cpu.dcache.ReadReq_avg_mshr_miss_latency::total 12730.820023                       # average ReadReq mshr miss latency
system.cpu.dcache.WriteReq_hits::.cpu.data      1436843                       # number of WriteReq hits
system.cpu.dcache.WriteReq_hits::total        1436843                       # number of WriteReq hits
system.cpu.dcache.WriteReq_misses::.cpu.data       762632                       # number of WriteReq misses
system.cpu.dcache.WriteReq_misses::total       762632                       # number of WriteReq misses
system.cpu.dcache.WriteReq_miss_latency::.cpu.data  11261758499                       # number of WriteReq miss cycles
system.cpu.dcache.WriteReq_miss_latency::total  11261758499                       # number of WriteReq miss cycles
system.cpu.dcache.WriteReq_accesses::.cpu.data      2199475                       # number of WriteReq accesses(hits+misses)
system.cpu.dcache.WriteReq_accesses::total      2199475                       # number of WriteReq accesses(hits+misses)
system.cpu.dcache.WriteReq_miss_rate::.cpu.data     0.346734                       # miss rate for WriteReq accesses
system.cpu.dcache.WriteReq_miss_rate::total     0.346734                       # miss rate for WriteReq accesses
system.cpu.dcache.WriteReq_avg_miss_latency::.cpu.data 14766.962964                       # average WriteReq miss latency
system.cpu.dcache.WriteReq_avg_miss_latency::total 14766.962964                       # average WriteReq miss latency
system.cpu.dcache.WriteReq_mshr_hits::.cpu.data            1                       # number of WriteReq MSHR hits
system.cpu.dcache.WriteReq_mshr_hits::total            1                       # number of WriteReq MSHR hits
system.cpu.dcache.WriteReq_mshr_misses::.cpu.data       762631                       # number of WriteReq MSHR misses
system.cpu.dcache.WriteReq_mshr_misses::total       762631                       # number of WriteReq MSHR misses
system.cpu.dcache.WriteReq_mshr_miss_latency::.cpu.data  10499031999                       # number of WriteReq MSHR miss cycles
system.cpu.dcache.WriteReq_mshr_miss_latency::total  10499031999                       # number of WriteReq MSHR miss cycles
system.cpu.dcache.WriteReq_mshr_miss_rate::.cpu.data     0.346733                       # mshr miss rate for WriteReq accesses
system.cpu.dcache.WriteReq_mshr_miss_rate::total     0.346733                       # mshr miss rate for WriteReq accesses
system.cpu.dcache.WriteReq_avg_mshr_miss_latency::.cpu.data 13766.857103                       # average WriteReq mshr miss latency
system.cpu.dcache.WriteReq_avg_mshr_miss_latency::total 13766.857103                       # average WriteReq mshr miss latency
system.cpu.dcache.power_state.pwrStateResidencyTicks::UNDEFINED  13058910500                       # Cumulative time (in ticks) in various power states
system.cpu.dcache.tags.tagsinuse          1017.307613                       # Cycle average of tags in use
system.cpu.dcache.tags.total_refs             2280663                       # Total number of references to valid blocks.
system.cpu.dcache.tags.sampled_refs            778533                       # Sample count of references to valid blocks.
system.cpu.dcache.tags.avg_refs              2.929437                       # Average number of references to valid blocks.
system.cpu.dcache.tags.warmup_cycle            176500                       # Cycle when the warmup percentage was hit.
system.cpu.dcache.tags.occ_blocks::.cpu.data  1017.307613                       # Average occupied blocks per requestor
system.cpu.dcache.tags.occ_percent::.cpu.data     0.993464                       # Average percentage of cache occupancy
system.cpu.dcache.tags.occ_percent::total     0.993464                       # Average percentage of cache occupancy
system.cpu.dcache.tags.occ_task_id_blocks::1024         1024                       # Occupied blocks per task id
system.cpu.dcache.tags.age_task_id_blocks_1024::0          327                       # Occupied blocks per task id
system.cpu.dcache.tags.age_task_id_blocks_1024::1          696                       # Occupied blocks per task id
system.cpu.dcache.tags.age_task_id_blocks_1024::2            1                       # Occupied blocks per task id
system.cpu.dcache.tags.occ_task_id_percent::1024            1                       # Percentage of cache occupancy per task id
system.cpu.dcache.tags.tag_accesses          38278453                       # Number of tag accesses
system.cpu.dcache.tags.data_accesses         38278453                       # Number of data accesses
system.cpu.dcache.tags.power_state.pwrStateResidencyTicks::UNDEFINED  13058910500                       # Cumulative time (in ticks) in various power states
system.cpu.decode.idleCycles                   685675                       # Number of cycles decode is idle
system.cpu.decode.blockedCycles              23124377                       # Number of cycles decode is blocked
system.cpu.decode.runCycles                    699777                       # Number of cycles decode is running
system.cpu.decode.unblockCycles               1568182                       # Number of cycles decode is unblocking
system.cpu.decode.squashCycles                   1230                       # Number of cycles decode is squashing
system.cpu.decode.branchResolved              2270134                       # Number of times decode resolved a  branch
system.cpu.decode.branchMispred                   221                       # Number of times decode detected a branch misprediction
system.cpu.decode.decodedInsts               17870019                       # Number of instructions handled by decode
system.cpu.decode.squashedInsts                   900                       # Number of squashed instructions handled by decode
system.cpu.dtb.rdAccesses                      144531                       # TLB accesses on read requests
system.cpu.dtb.wrAccesses                     2207019                       # TLB accesses on write requests
system.cpu.dtb.rdMisses                           498                       # TLB misses on read requests
system.cpu.dtb.wrMisses                         47837                       # TLB misses on write requests
system.cpu.dtb.walker.power_state.pwrStateResidencyTicks::UNDEFINED  13058910500                       # Cumulative time (in ticks) in various power states
system.cpu.dtb_walker_cache.blocked_cycles::no_mshrs            0                       # number of cycles access was blocked
system.cpu.dtb_walker_cache.blocked_cycles::no_targets            0                       # number of cycles access was blocked
system.cpu.dtb_walker_cache.blocked::no_mshrs            0                       # number of cycles access was blocked
system.cpu.dtb_walker_cache.blocked::no_targets            0                       # number of cycles access was blocked
system.cpu.dtb_walker_cache.avg_blocked_cycles::no_mshrs          nan                       # average number of cycles each access was blocked
system.cpu.dtb_walker_cache.avg_blocked_cycles::no_targets          nan                       # average number of cycles each access was blocked
system.cpu.dtb_walker_cache.replacements            0                       # number of replacements
system.cpu.dtb_walker_cache.power_state.pwrStateResidencyTicks::UNDEFINED  13058910500                       # Cumulative time (in ticks) in various power states
system.cpu.dtb_walker_cache.tags.tagsinuse            0                       # Cycle average of tags in use
system.cpu.dtb_walker_cache.tags.total_refs            0                       # Total number of references to valid blocks.
system.cpu.dtb_walker_cache.tags.sampled_refs            0                       # Sample count of references to valid blocks.
system.cpu.dtb_walker_cache.tags.avg_refs          nan                       # Average number of references to valid blocks.
system.cpu.dtb_walker_cache.tags.warmup_cycle            0                       # Cycle when the warmup percentage was hit.
system.cpu.dtb_walker_cache.tags.tag_accesses            0                       # Number of tag accesses
system.cpu.dtb_walker_cache.tags.data_accesses            0                       # Number of data accesses
system.cpu.dtb_walker_cache.tags.power_state.pwrStateResidencyTicks::UNDEFINED  13058910500                       # Cumulative time (in ticks) in various power states
system.cpu.fetch.icacheStallCycles             146735                       # Number of cycles fetch is stalled on an Icache miss
system.cpu.fetch.insts                       10053192                       # Number of instructions fetch has processed
system.cpu.fetch.branches                     2277787                       # Number of branches that fetch encountered
system.cpu.fetch.predictedBranches            2273477                       # Number of branches that fetch has predicted taken
system.cpu.fetch.cycles                      25930062                       # Number of cycles fetch has run and was not squashing or blocked
system.cpu.fetch.squashCycles                    2886                       # Number of cycles fetch has spent squashing
system.cpu.fetch.miscStallCycles                  141                       # Number of cycles fetch has spent waiting on interrupts,or bad addresses, or out of MSHRs
system.cpu.fetch.pendingTrapStallCycles           825                       # Number of stall cycles due to pending traps
system.cpu.fetch.pendingQuiesceStallCycles            2                       # Number of stall cycles due to pending quiesce instructions
system.cpu.fetch.icacheWaitRetryStallCycles           33                       # Number of stall cycles due to full MSHR
system.cpu.fetch.cacheLines                    130917                       # Number of cache lines fetched
system.cpu.fetch.icacheSquashes                   434                       # Number of outstanding Icache misses that were squashed
system.cpu.fetch.nisnDist::samples           26079241                       # Number of instructions fetched each cycle (Total)
system.cpu.fetch.nisnDist::mean              0.686222                       # Number of instructions fetched each cycle (Total)
system.cpu.fetch.nisnDist::stdev             1.963815                       # Number of instructions fetched each cycle (Total)
system.cpu.fetch.nisnDist::underflows               0      0.00%      0.00% # Number of instructions fetched each cycle (Total)
system.cpu.fetch.nisnDist::0                 22742429     87.21%     87.21% # Number of instructions fetched each cycle (Total)
system.cpu.fetch.nisnDist::1                   346619      1.33%     88.53% # Number of instructions fetched each cycle (Total)
system.cpu.fetch.nisnDist::2                   253984      0.97%     89.51% # Number of instructions fetched each cycle (Total)
system.cpu.fetch.nisnDist::3                   207401      0.80%     90.30% # Number of instructions fetched each cycle (Total)
system.cpu.fetch.nisnDist::4                   254355      0.98%     91.28% # Number of instructions fetched each cycle (Total)
system.cpu.fetch.nisnDist::5                   190455      0.73%     92.01% # Number of instructions fetched each cycle (Total)
system.cpu.fetch.nisnDist::6                   377979      1.45%     93.46% # Number of instructions fetched each cycle (Total)
system.cpu.fetch.nisnDist::7                  1466373      5.62%     99.08% # Number of instructions fetched each cycle (Total)
system.cpu.fetch.nisnDist::8                   239646      0.92%    100.00% # Number of instructions fetched each cycle (Total)
system.cpu.fetch.nisnDist::overflows                0      0.00%    100.00% # Number of instructions fetched each cycle (Total)
system.cpu.fetch.nisnDist::min_value                0                       # Number of instructions fetched each cycle (Total)
system.cpu.fetch.nisnDist::max_value                8                       # Number of instructions fetched each cycle (Total)
system.cpu.fetch.nisnDist::total             26079241                       # Number of instructions fetched each cycle (Total)
system.cpu.fetch.branchRate                  0.087212                       # Number of branch fetches per cycle
system.cpu.fetch.rate                        0.384917                       # Number of inst fetches per cycle
system.cpu.icache.demand_hits::.cpu.inst       130296                       # number of demand (read+write) hits
system.cpu.icache.demand_hits::total           130296                       # number of demand (read+write) hits
system.cpu.icache.overall_hits::.cpu.inst       130296                       # number of overall hits
system.cpu.icache.overall_hits::total          130296                       # number of overall hits
system.cpu.icache.demand_misses::.cpu.inst          621                       # number of demand (read+write) misses
system.cpu.icache.demand_misses::total            621                       # number of demand (read+write) misses
system.cpu.icache.overall_misses::.cpu.inst          621                       # number of overall misses
system.cpu.icache.overall_misses::total           621                       # number of overall misses
system.cpu.icache.demand_miss_latency::.cpu.inst     48466999                       # number of demand (read+write) miss cycles
system.cpu.icache.demand_miss_latency::total     48466999                       # number of demand (read+write) miss cycles
system.cpu.icache.overall_miss_latency::.cpu.inst     48466999                       # number of overall miss cycles
system.cpu.icache.overall_miss_latency::total     48466999                       # number of overall miss cycles
system.cpu.icache.demand_accesses::.cpu.inst       130917                       # number of demand (read+write) accesses
system.cpu.icache.demand_accesses::total       130917                       # number of demand (read+write) accesses
system.cpu.icache.overall_accesses::.cpu.inst       130917                       # number of overall (read+write) accesses
system.cpu.icache.overall_accesses::total       130917                       # number of overall (read+write) accesses
system.cpu.icache.demand_miss_rate::.cpu.inst     0.004743                       # miss rate for demand accesses
system.cpu.icache.demand_miss_rate::total     0.004743                       # miss rate for demand accesses
system.cpu.icache.overall_miss_rate::.cpu.inst     0.004743                       # miss rate for overall accesses
system.cpu.icache.overall_miss_rate::total     0.004743                       # miss rate for overall accesses
system.cpu.icache.demand_avg_miss_latency::.cpu.inst 78046.697262                       # average overall miss latency
system.cpu.icache.demand_avg_miss_latency::total 78046.697262                       # average overall miss latency
system.cpu.icache.overall_avg_miss_latency::.cpu.inst 78046.697262                       # average overall miss latency
system.cpu.icache.overall_avg_miss_latency::total 78046.697262                       # average overall miss latency
system.cpu.icache.blocked_cycles::no_mshrs          943                       # number of cycles access was blocked
system.cpu.icache.blocked_cycles::no_targets            0                       # number of cycles access was blocked
system.cpu.icache.blocked::no_mshrs                 5                       # number of cycles access was blocked
system.cpu.icache.blocked::no_targets               0                       # number of cycles access was blocked
system.cpu.icache.avg_blocked_cycles::no_mshrs   188.600000                       # average number of cycles each access was blocked
system.cpu.icache.avg_blocked_cycles::no_targets          nan                       # average number of cycles each access was blocked
system.cpu.icache.writebacks::.writebacks           24                       # number of writebacks
system.cpu.icache.writebacks::total                24                       # number of writebacks
system.cpu.icache.demand_mshr_hits::.cpu.inst          135                       # number of demand (read+write) MSHR hits
system.cpu.icache.demand_mshr_hits::total          135                       # number of demand (read+write) MSHR hits
system.cpu.icache.overall_mshr_hits::.cpu.inst          135                       # number of overall MSHR hits
system.cpu.icache.overall_mshr_hits::total          135                       # number of overall MSHR hits
system.cpu.icache.demand_mshr_misses::.cpu.inst          486                       # number of demand (read+write) MSHR misses
system.cpu.icache.demand_mshr_misses::total          486                       # number of demand (read+write) MSHR misses
system.cpu.icache.overall_mshr_misses::.cpu.inst          486                       # number of overall MSHR misses
system.cpu.icache.overall_mshr_misses::total          486                       # number of overall MSHR misses
system.cpu.icache.demand_mshr_miss_latency::.cpu.inst     39932499                       # number of demand (read+write) MSHR miss cycles
system.cpu.icache.demand_mshr_miss_latency::total     39932499                       # number of demand (read+write) MSHR miss cycles
system.cpu.icache.overall_mshr_miss_latency::.cpu.inst     39932499                       # number of overall MSHR miss cycles
system.cpu.icache.overall_mshr_miss_latency::total     39932499                       # number of overall MSHR miss cycles
system.cpu.icache.demand_mshr_miss_rate::.cpu.inst     0.003712                       # mshr miss rate for demand accesses
system.cpu.icache.demand_mshr_miss_rate::total     0.003712                       # mshr miss rate for demand accesses
system.cpu.icache.overall_mshr_miss_rate::.cpu.inst     0.003712                       # mshr miss rate for overall accesses
system.cpu.icache.overall_mshr_miss_rate::total     0.003712                       # mshr miss rate for overall accesses
system.cpu.icache.demand_avg_mshr_miss_latency::.cpu.inst 82165.635802                       # average overall mshr miss latency
system.cpu.icache.demand_avg_mshr_miss_latency::total 82165.635802                       # average overall mshr miss latency
system.cpu.icache.overall_avg_mshr_miss_latency::.cpu.inst 82165.635802                       # average overall mshr miss latency
system.cpu.icache.overall_avg_mshr_miss_latency::total 82165.635802                       # average overall mshr miss latency
system.cpu.icache.replacements                     24                       # number of replacements
system.cpu.icache.ReadReq_hits::.cpu.inst       130296                       # number of ReadReq hits
system.cpu.icache.ReadReq_hits::total          130296                       # number of ReadReq hits
system.cpu.icache.ReadReq_misses::.cpu.inst          621                       # number of ReadReq misses
system.cpu.icache.ReadReq_misses::total           621                       # number of ReadReq misses
system.cpu.icache.ReadReq_miss_latency::.cpu.inst     48466999                       # number of ReadReq miss cycles
system.cpu.icache.ReadReq_miss_latency::total     48466999                       # number of ReadReq miss cycles
system.cpu.icache.ReadReq_accesses::.cpu.inst       130917                       # number of ReadReq accesses(hits+misses)
system.cpu.icache.ReadReq_accesses::total       130917                       # number of ReadReq accesses(hits+misses)
system.cpu.icache.ReadReq_miss_rate::.cpu.inst     0.004743                       # miss rate for ReadReq accesses
system.cpu.icache.ReadReq_miss_rate::total     0.004743                       # miss rate for ReadReq accesses
system.cpu.icache.ReadReq_avg_miss_latency::.cpu.inst 78046.697262                       # average ReadReq miss latency
system.cpu.icache.ReadReq_avg_miss_latency::total 78046.697262                       # average ReadReq miss latency
system.cpu.icache.ReadReq_mshr_hits::.cpu.inst          135                       # number of ReadReq MSHR hits
system.cpu.icache.ReadReq_mshr_hits::total          135                       # number of ReadReq MSHR hits
system.cpu.icache.ReadReq_mshr_misses::.cpu.inst          486                       # number of ReadReq MSHR misses
system.cpu.icache.ReadReq_mshr_misses::total          486                       # number of ReadReq MSHR misses
system.cpu.icache.ReadReq_mshr_miss_latency::.cpu.inst     39932499                       # number of ReadReq MSHR miss cycles
system.cpu.icache.ReadReq_mshr_miss_latency::total     39932499                       # number of ReadReq MSHR miss cycles
system.cpu.icache.ReadReq_mshr_miss_rate::.cpu.inst     0.003712                       # mshr miss rate for ReadReq accesses
system.cpu.icache.ReadReq_mshr_miss_rate::total     0.003712                       # mshr miss rate for ReadReq accesses
system.cpu.icache.ReadReq_avg_mshr_miss_latency::.cpu.inst 82165.635802                       # average ReadReq mshr miss latency
system.cpu.icache.ReadReq_avg_mshr_miss_latency::total 82165.635802                       # average ReadReq mshr miss latency
system.cpu.icache.power_state.pwrStateResidencyTicks::UNDEFINED  13058910500                       # Cumulative time (in ticks) in various power states
system.cpu.icache.tags.tagsinuse           418.364466                       # Cycle average of tags in use
system.cpu.icache.tags.total_refs              130781                       # Total number of references to valid blocks.
system.cpu.icache.tags.sampled_refs               485                       # Sample count of references to valid blocks.
system.cpu.icache.tags.avg_refs            269.651546                       # Average number of references to valid blocks.
system.cpu.icache.tags.warmup_cycle             87500                       # Cycle when the warmup percentage was hit.
system.cpu.icache.tags.occ_blocks::.cpu.inst   418.364466                       # Average occupied blocks per requestor
system.cpu.icache.tags.occ_percent::.cpu.inst     0.408559                       # Average percentage of cache occupancy
system.cpu.icache.tags.occ_percent::total     0.408559                       # Average percentage of cache occupancy
system.cpu.icache.tags.occ_task_id_blocks::1024          461                       # Occupied blocks per task id
system.cpu.icache.tags.age_task_id_blocks_1024::0           44                       # Occupied blocks per task id
system.cpu.icache.tags.age_task_id_blocks_1024::2            1                       # Occupied blocks per task id
system.cpu.icache.tags.age_task_id_blocks_1024::4          416                       # Occupied blocks per task id
system.cpu.icache.tags.occ_task_id_percent::1024     0.450195                       # Percentage of cache occupancy per task id
system.cpu.icache.tags.tag_accesses            262319                       # Number of tag accesses
system.cpu.icache.tags.data_accesses           262319                       # Number of data accesses
system.cpu.icache.tags.power_state.pwrStateResidencyTicks::UNDEFINED  13058910500                       # Cumulative time (in ticks) in various power states
system.cpu.interrupts.clk_domain.clock           8000                       # Clock period in ticks
system.cpu.itb.rdAccesses                           0                       # TLB accesses on read requests
system.cpu.itb.wrAccesses                      131063                       # TLB accesses on write requests
system.cpu.itb.rdMisses                             0                       # TLB misses on read requests
system.cpu.itb.wrMisses                           191                       # TLB misses on write requests
system.cpu.itb.walker.power_state.pwrStateResidencyTicks::UNDEFINED  13058910500                       # Cumulative time (in ticks) in various power states
system.cpu.itb_walker_cache.blocked_cycles::no_mshrs            0                       # number of cycles access was blocked
system.cpu.itb_walker_cache.blocked_cycles::no_targets            0                       # number of cycles access was blocked
system.cpu.itb_walker_cache.blocked::no_mshrs            0                       # number of cycles access was blocked
system.cpu.itb_walker_cache.blocked::no_targets            0                       # number of cycles access was blocked
system.cpu.itb_walker_cache.avg_blocked_cycles::no_mshrs          nan                       # average number of cycles each access was blocked
system.cpu.itb_walker_cache.avg_blocked_cycles::no_targets          nan                       # average number of cycles each access was blocked
system.cpu.itb_walker_cache.replacements            0                       # number of replacements
system.cpu.itb_walker_cache.power_state.pwrStateResidencyTicks::UNDEFINED  13058910500                       # Cumulative time (in ticks) in various power states
system.cpu.itb_walker_cache.tags.tagsinuse            0                       # Cycle average of tags in use
system.cpu.itb_walker_cache.tags.total_refs            0                       # Total number of references to valid blocks.
system.cpu.itb_walker_cache.tags.sampled_refs            0                       # Sample count of references to valid blocks.
system.cpu.itb_walker_cache.tags.avg_refs          nan                       # Average number of references to valid blocks.
system.cpu.itb_walker_cache.tags.warmup_cycle            0                       # Cycle when the warmup percentage was hit.
system.cpu.itb_walker_cache.tags.tag_accesses            0                       # Number of tag accesses
system.cpu.itb_walker_cache.tags.data_accesses            0                       # Number of data accesses
system.cpu.itb_walker_cache.tags.power_state.pwrStateResidencyTicks::UNDEFINED  13058910500                       # Cumulative time (in ticks) in various power states
system.cpu.lsq0.forwLoads                         196                       # Number of loads that had data forwarded from stores
system.cpu.lsq0.squashedLoads                    1879                       # Number of loads squashed
system.cpu.lsq0.ignoredResponses                    2                       # Number of memory responses ignored because the instruction is squashed
system.cpu.lsq0.memOrderViolation                  11                       # Number of memory ordering violations
system.cpu.lsq0.squashedStores                   8047                       # Number of stores squashed
system.cpu.lsq0.rescheduledLoads                    0                       # Number of loads that were rescheduled
system.cpu.lsq0.blockedByCache                     16                       # Number of times an access to memory failed due to the cache being blocked
system.cpu.power_state.pwrStateResidencyTicks::ON  13058910500                       # Cumulative time (in ticks) in various power states
system.cpu.rename.squashCycles                   1230                       # Number of cycles rename is squashing
system.cpu.rename.idleCycles                  1172385                       # Number of cycles rename is idle
system.cpu.rename.blockCycles                 6726633                       # Number of cycles rename is blocking
system.cpu.rename.serializeStallCycles             34                       # count of cycles rename stalledfor serializing inst
system.cpu.rename.runCycles                   1765571                       # Number of cycles rename is running
system.cpu.rename.unblockCycles              16413388                       # Number of cycles rename is unblocking
system.cpu.rename.renamedInsts               17865840                       # Number of instructions processed by rename
system.cpu.rename.ROBFullEvents                   755                       # Number of times rename has blocked due to ROB full
system.cpu.rename.IQFullEvents                  46935                       # Number of times rename has blocked due to IQ full
system.cpu.rename.LQFullEvents                      1                       # Number of times rename has blocked due to LQ full
system.cpu.rename.SQFullEvents               16155480                       # Number of times rename has blocked due to SQ full
system.cpu.rename.renamedOperands            22474726                       # Number of destination operands rename has renamed
system.cpu.rename.lookups                    45388319                       # Number of register rename lookups that rename has made
system.cpu.rename.intLookups                 22758498                       # Number of integer rename lookups
system.cpu.rename.fpLookups                   4376754                       # Number of floating rename lookups
system.cpu.rename.committedMaps              22385329                       # Number of HB maps that are committed
system.cpu.rename.undoneMaps                    89391                       # Number of HB maps that are undone due to squashing
system.cpu.rename.serializing                       3                       # count of serializing insts renamed
system.cpu.rename.tempSerializing                   3                       # count of temporary serializing insts renamed
system.cpu.rename.skidInsts                   8422452                       # count of insts added to the skid buffer
system.cpu.rob.reads                         43572403                       # The number of ROB reads
system.cpu.rob.writes                        35732789                       # The number of ROB writes
system.cpu.thread_0.numInsts                  9995921                       # Number of Instructions committed
system.cpu.thread_0.numOps                   17794161                       # Number of Ops committed
system.cpu.thread_0.numMemRefs                      0                       # Number of Memory References
system.cpu_clk_domain.clock                       500                       # Clock period in ticks
system.cpu_voltage_domain.voltage                   1                       # Voltage in Volts
system.l2.demand_hits::.cpu.inst                    3                       # number of demand (read+write) hits
system.l2.demand_hits::.cpu.data               761508                       # number of demand (read+write) hits
system.l2.demand_hits::total                   761511                       # number of demand (read+write) hits
system.l2.overall_hits::.cpu.inst                   3                       # number of overall hits
system.l2.overall_hits::.cpu.data              761508                       # number of overall hits
system.l2.overall_hits::total                  761511                       # number of overall hits
system.l2.demand_misses::.cpu.inst                483                       # number of demand (read+write) misses
system.l2.demand_misses::.cpu.data              17025                       # number of demand (read+write) misses
system.l2.demand_misses::total                  17508                       # number of demand (read+write) misses
system.l2.overall_misses::.cpu.inst               483                       # number of overall misses
system.l2.overall_misses::.cpu.data             17025                       # number of overall misses
system.l2.overall_misses::total                 17508                       # number of overall misses
system.l2.demand_miss_latency::.cpu.inst     39168000                       # number of demand (read+write) miss cycles
system.l2.demand_miss_latency::.cpu.data   1263058500                       # number of demand (read+write) miss cycles
system.l2.demand_miss_latency::total       1302226500                       # number of demand (read+write) miss cycles
system.l2.overall_miss_latency::.cpu.inst     39168000                       # number of overall miss cycles
system.l2.overall_miss_latency::.cpu.data   1263058500                       # number of overall miss cycles
system.l2.overall_miss_latency::total      1302226500                       # number of overall miss cycles
system.l2.demand_accesses::.cpu.inst              486                       # number of demand (read+write) accesses
system.l2.demand_accesses::.cpu.data           778533                       # number of demand (read+write) accesses
system.l2.demand_accesses::total               779019                       # number of demand (read+write) accesses
system.l2.overall_accesses::.cpu.inst             486                       # number of overall (read+write) accesses
system.l2.overall_accesses::.cpu.data          778533                       # number of overall (read+write) accesses
system.l2.overall_accesses::total              779019                       # number of overall (read+write) accesses
system.l2.demand_miss_rate::.cpu.inst        0.993827                       # miss rate for demand accesses
system.l2.demand_miss_rate::.cpu.data        0.021868                       # miss rate for demand accesses
system.l2.demand_miss_rate::total            0.022474                       # miss rate for demand accesses
system.l2.overall_miss_rate::.cpu.inst       0.993827                       # miss rate for overall accesses
system.l2.overall_miss_rate::.cpu.data       0.021868                       # miss rate for overall accesses
system.l2.overall_miss_rate::total           0.022474                       # miss rate for overall accesses
system.l2.demand_avg_miss_latency::.cpu.inst 81093.167702                       # average overall miss latency
system.l2.demand_avg_miss_latency::.cpu.data 74188.458150                       # average overall miss latency
system.l2.demand_avg_miss_latency::total 74378.941056                       # average overall miss latency
system.l2.overall_avg_miss_latency::.cpu.inst 81093.167702                       # average overall miss latency
system.l2.overall_avg_miss_latency::.cpu.data 74188.458150                       # average overall miss latency
system.l2.overall_avg_miss_latency::total 74378.941056                       # average overall miss latency
system.l2.blocked_cycles::no_mshrs                  0                       # number of cycles access was blocked
[...]
system.mem_ctrls.dram.bw_total::.cpu.data     83437282                       # Total bandwidth to/from this memory (bytes/s)
system.mem_ctrls.dram.bw_total::total        91724650                       # Total bandwidth to/from this memory (bytes/s)
system.mem_ctrls.dram.readBursts                17474                       # Number of DRAM read bursts
system.mem_ctrls.dram.writeBursts                1189                       # Number of DRAM write bursts
system.mem_ctrls.dram.perBankRdBursts::0         1064                       # Per bank write bursts
system.mem_ctrls.dram.perBankRdBursts::1         1054                       # Per bank write bursts
system.mem_ctrls.dram.perBankRdBursts::2          967                       # Per bank write bursts
system.mem_ctrls.dram.perBankRdBursts::3          989                       # Per bank write bursts
system.mem_ctrls.dram.perBankRdBursts::4         1109                       # Per bank write bursts
system.mem_ctrls.dram.perBankRdBursts::5         1114                       # Per bank write bursts
system.mem_ctrls.dram.perBankRdBursts::6         1186                       # Per bank write bursts
system.mem_ctrls.dram.perBankRdBursts::7         1131                       # Per bank write bursts
system.mem_ctrls.dram.perBankRdBursts::8         1135                       # Per bank write bursts
system.mem_ctrls.dram.perBankRdBursts::9         1120                       # Per bank write bursts
system.mem_ctrls.dram.perBankRdBursts::10         1129                       # Per bank write bursts
system.mem_ctrls.dram.perBankRdBursts::11         1134                       # Per bank write bursts
system.mem_ctrls.dram.perBankRdBursts::12         1138                       # Per bank write bursts
system.mem_ctrls.dram.perBankRdBursts::13         1116                       # Per bank write bursts
system.mem_ctrls.dram.perBankRdBursts::14         1026                       # Per bank write bursts
system.mem_ctrls.dram.perBankRdBursts::15         1062                       # Per bank write bursts
system.mem_ctrls.dram.perBankWrBursts::0           76                       # Per bank write bursts
system.mem_ctrls.dram.perBankWrBursts::1           70                       # Per bank write bursts
system.mem_ctrls.dram.perBankWrBursts::2           57                       # Per bank write bursts
system.mem_ctrls.dram.perBankWrBursts::3           58                       # Per bank write bursts
system.mem_ctrls.dram.perBankWrBursts::4           75                       # Per bank write bursts
system.mem_ctrls.dram.perBankWrBursts::5           87                       # Per bank write bursts
system.mem_ctrls.dram.perBankWrBursts::6           86                       # Per bank write bursts
system.mem_ctrls.dram.perBankWrBursts::7           83                       # Per bank write bursts
system.mem_ctrls.dram.perBankWrBursts::8           84                       # Per bank write bursts
system.mem_ctrls.dram.perBankWrBursts::9           84                       # Per bank write bursts
system.mem_ctrls.dram.perBankWrBursts::10           98                       # Per bank write bursts
system.mem_ctrls.dram.perBankWrBursts::11           72                       # Per bank write bursts
system.mem_ctrls.dram.perBankWrBursts::12           67                       # Per bank write bursts
system.mem_ctrls.dram.perBankWrBursts::13           78                       # Per bank write bursts
system.mem_ctrls.dram.perBankWrBursts::14           48                       # Per bank write bursts
system.mem_ctrls.dram.perBankWrBursts::15           66                       # Per bank write bursts
system.mem_ctrls.dram.totQLat                85735500                       # Total ticks spent queuing
system.mem_ctrls.dram.totBusLat              87370000                       # Total ticks spent in databus transfers
system.mem_ctrls.dram.totMemAccLat          413373000                       # Total ticks spent from burst creation until serviced by the DRAM
system.mem_ctrls.dram.avgQLat                 4906.46                       # Average queueing delay per DRAM burst
system.mem_ctrls.dram.avgBusLat               5000.00                       # Average bus latency per DRAM burst
system.mem_ctrls.dram.avgMemAccLat           23656.46                       # Average memory access latency per DRAM burst
system.mem_ctrls.dram.readRowHits               15918                       # Number of row buffer hits during reads
system.mem_ctrls.dram.writeRowHits                677                       # Number of row buffer hits during writes
system.mem_ctrls.dram.readRowHitRate            91.10                       # Row buffer hit rate for reads
system.mem_ctrls.dram.writeRowHitRate           56.94                       # Row buffer hit rate for writes
system.mem_ctrls.dram.bytesPerActivate::samples         2058                       # Bytes accessed per row activation
system.mem_ctrls.dram.bytesPerActivate::mean   579.482993                       # Bytes accessed per row activation
system.mem_ctrls.dram.bytesPerActivate::gmean   376.291153                       # Bytes accessed per row activation
system.mem_ctrls.dram.bytesPerActivate::stdev   408.712273                       # Bytes accessed per row activation
system.mem_ctrls.dram.bytesPerActivate::0-127          361     17.54%     17.54% # Bytes accessed per row activation
system.mem_ctrls.dram.bytesPerActivate::128-255          319     15.50%     33.04% # Bytes accessed per row activation
system.mem_ctrls.dram.bytesPerActivate::256-383          175      8.50%     41.55% # Bytes accessed per row activation
system.mem_ctrls.dram.bytesPerActivate::384-511           95      4.62%     46.16% # Bytes accessed per row activation
system.mem_ctrls.dram.bytesPerActivate::512-639          132      6.41%     52.58% # Bytes accessed per row activation
system.mem_ctrls.dram.bytesPerActivate::640-767           61      2.96%     55.54% # Bytes accessed per row activation
system.mem_ctrls.dram.bytesPerActivate::768-895           54      2.62%     58.16% # Bytes accessed per row activation
system.mem_ctrls.dram.bytesPerActivate::896-1023           49      2.38%     60.54% # Bytes accessed per row activation
system.mem_ctrls.dram.bytesPerActivate::1024-1151          812     39.46%    100.00% # Bytes accessed per row activation
system.mem_ctrls.dram.bytesPerActivate::total         2058                       # Bytes accessed per row activation
system.mem_ctrls.dram.bytesRead               1118336                       # Total number of bytes read from DRAM
system.mem_ctrls.dram.bytesWritten              76096                       # Total number of bytes written to DRAM
system.mem_ctrls.dram.avgRdBW               85.637772                       # Average DRAM read bandwidth in MiBytes/s
system.mem_ctrls.dram.avgWrBW                5.827132                       # Average DRAM write bandwidth in MiBytes/s
system.mem_ctrls.dram.peakBW                 12800.00                       # Theoretical peak bandwidth in MiByte/s
system.mem_ctrls.dram.busUtil                    0.71                       # Data bus utilization in percentage
system.mem_ctrls.dram.busUtilRead                0.67                       # Data bus utilization in percentage for reads
system.mem_ctrls.dram.busUtilWrite               0.05                       # Data bus utilization in percentage for writes
system.mem_ctrls.dram.pageHitRate               88.92                       # Row buffer hit rate, read and write combined
system.mem_ctrls.dram.power_state.pwrStateResidencyTicks::UNDEFINED  13058910500                       # Cumulative time (in ticks) in various power states
system.mem_ctrls.dram.rank0.actEnergy         7432740                       # Energy for activate commands per rank (pJ)
system.mem_ctrls.dram.rank0.preEnergy         3927825                       # Energy for precharge commands per rank (pJ)
system.mem_ctrls.dram.rank0.readEnergy       61503960                       # Energy for read commands per rank (pJ)
system.mem_ctrls.dram.rank0.writeEnergy       3090240                       # Energy for write commands per rank (pJ)
system.mem_ctrls.dram.rank0.refreshEnergy 1030751280.000000                       # Energy for refresh commands per rank (pJ)
system.mem_ctrls.dram.rank0.actBackEnergy    741540360                       # Energy for active background per rank (pJ)
system.mem_ctrls.dram.rank0.preBackEnergy   4390166880                       # Energy for precharge background per rank (pJ)
system.mem_ctrls.dram.rank0.actPowerDownEnergy            0                       # Energy for active power-down per rank (pJ)
system.mem_ctrls.dram.rank0.prePowerDownEnergy            0                       # Energy for precharge power-down per rank (pJ)
system.mem_ctrls.dram.rank0.selfRefreshEnergy            0                       # Energy for self refresh per rank (pJ)
system.mem_ctrls.dram.rank0.totalEnergy    6238413285                       # Total energy per rank (pJ)
system.mem_ctrls.dram.rank0.averagePower   477.713151                       # Core power per rank (mW)
system.mem_ctrls.dram.rank0.totalIdleTime            0                       # Total Idle time Per DRAM Rank
system.mem_ctrls.dram.rank0.pwrStateTime::IDLE  11403301750                       # Time in different power states
system.mem_ctrls.dram.rank0.pwrStateTime::REF    436020000                       # Time in different power states
system.mem_ctrls.dram.rank0.pwrStateTime::SREF            0                       # Time in different power states
system.mem_ctrls.dram.rank0.pwrStateTime::PRE_PDN            0                       # Time in different power states
system.mem_ctrls.dram.rank0.pwrStateTime::ACT   1219588750                       # Time in different power states
system.mem_ctrls.dram.rank0.pwrStateTime::ACT_PDN            0                       # Time in different power states
system.mem_ctrls.dram.rank1.actEnergy         7332780                       # Energy for activate commands per rank (pJ)
system.mem_ctrls.dram.rank1.preEnergy         3882285                       # Energy for precharge commands per rank (pJ)
system.mem_ctrls.dram.rank1.readEnergy       63260400                       # Energy for read commands per rank (pJ)
system.mem_ctrls.dram.rank1.writeEnergy       3116340                       # Energy for write commands per rank (pJ)
system.mem_ctrls.dram.rank1.refreshEnergy 1030751280.000000                       # Energy for refresh commands per rank (pJ)
system.mem_ctrls.dram.rank1.actBackEnergy    737870130                       # Energy for active background per rank (pJ)
system.mem_ctrls.dram.rank1.preBackEnergy   4393257600                       # Energy for precharge background per rank (pJ)
system.mem_ctrls.dram.rank1.actPowerDownEnergy            0                       # Energy for active power-down per rank (pJ)
system.mem_ctrls.dram.rank1.prePowerDownEnergy            0                       # Energy for precharge power-down per rank (pJ)
system.mem_ctrls.dram.rank1.selfRefreshEnergy            0                       # Energy for self refresh per rank (pJ)
system.mem_ctrls.dram.rank1.totalEnergy    6239470815                       # Total energy per rank (pJ)
system.mem_ctrls.dram.rank1.averagePower   477.794133                       # Core power per rank (mW)
system.mem_ctrls.dram.rank1.totalIdleTime            0                       # Total Idle time Per DRAM Rank
system.mem_ctrls.dram.rank1.pwrStateTime::IDLE  11410647000                       # Time in different power states
system.mem_ctrls.dram.rank1.pwrStateTime::REF    436020000                       # Time in different power states
system.mem_ctrls.dram.rank1.pwrStateTime::SREF            0                       # Time in different power states
system.mem_ctrls.dram.rank1.pwrStateTime::PRE_PDN            0                       # Time in different power states
system.mem_ctrls.dram.rank1.pwrStateTime::ACT   1212243500                       # Time in different power states
system.mem_ctrls.dram.rank1.pwrStateTime::ACT_PDN            0                       # Time in different power states
system.mem_ctrls.power_state.pwrStateResidencyTicks::UNDEFINED  13058910500                       # Cumulative time (in ticks) in various power states
system.membus.trans_dist::ReadResp                614                       # Transaction distribution
system.membus.trans_dist::WritebackDirty         1209                       # Transaction distribution
system.membus.trans_dist::CleanEvict               24                       # Transaction distribution
system.membus.trans_dist::ReadExReq             16893                       # Transaction distribution
system.membus.trans_dist::ReadExResp            16893                       # Transaction distribution
system.membus.trans_dist::ReadSharedReq           614                       # Transaction distribution
system.membus.pkt_count_system.l2.mem_side_port::system.mem_ctrls.port        36247                       # Packet count per connected requestor and responder (bytes)
system.membus.pkt_count_system.l2.mem_side_port::total        36247                       # Packet count per connected requestor and responder (bytes)
system.membus.pkt_count::total                  36247                       # Packet count per connected requestor and responder (bytes)
system.membus.pkt_size_system.l2.mem_side_port::system.mem_ctrls.port      1197824                       # Cumulative packet size per connected requestor and responder (bytes)
system.membus.pkt_size_system.l2.mem_side_port::total      1197824                       # Cumulative packet size per connected requestor and responder (bytes)
system.membus.pkt_size::total                 1197824                       # Cumulative packet size per connected requestor and responder (bytes)
system.membus.snoops                                0                       # Total snoops (count)
system.membus.snoopTraffic                          0                       # Total snoop traffic (bytes)
system.membus.snoop_fanout::samples             17507                       # Request fanout histogram
system.membus.snoop_fanout::mean                    0                       # Request fanout histogram
system.membus.snoop_fanout::stdev                   0                       # Request fanout histogram
system.membus.snoop_fanout::underflows              0      0.00%      0.00% # Request fanout histogram
system.membus.snoop_fanout::0                   17507    100.00%    100.00% # Request fanout histogram
system.membus.snoop_fanout::1                       0      0.00%    100.00% # Request fanout histogram
system.membus.snoop_fanout::overflows               0      0.00%    100.00% # Request fanout histogram
system.membus.snoop_fanout::min_value               0                       # Request fanout histogram
system.membus.snoop_fanout::max_value               0                       # Request fanout histogram
system.membus.snoop_fanout::total               17507                       # Request fanout histogram
system.membus.power_state.pwrStateResidencyTicks::UNDEFINED  13058910500                       # Cumulative time (in ticks) in various power states
system.membus.reqLayer2.occupancy            23852500                       # Layer occupancy (ticks)
system.membus.reqLayer2.utilization               0.2                       # Layer utilization (%)
system.membus.respLayer1.occupancy           92259000                       # Layer occupancy (ticks)
system.membus.respLayer1.utilization              0.7                       # Layer utilization (%)
system.tol2bus.trans_dist::ReadResp             16387                       # Transaction distribution
system.tol2bus.trans_dist::WritebackDirty       778639                       # Transaction distribution
system.tol2bus.trans_dist::WritebackClean           24                       # Transaction distribution
system.tol2bus.trans_dist::CleanEvict             206                       # Transaction distribution
system.tol2bus.trans_dist::ReadExReq           762631                       # Transaction distribution
system.tol2bus.trans_dist::ReadExResp          762631                       # Transaction distribution
system.tol2bus.trans_dist::ReadCleanReq           486                       # Transaction distribution
system.tol2bus.trans_dist::ReadSharedReq        15902                       # Transaction distribution
system.tol2bus.pkt_count_system.cpu.icache.mem_side_port::system.l2.cpu_side_port          995                       # Packet count per connected requestor and responder (bytes)
system.tol2bus.pkt_count_system.cpu.dcache.mem_side_port::system.l2.cpu_side_port      2334575                       # Packet count per connected requestor and responder (bytes)
system.tol2bus.pkt_count::total               2335570                       # Packet count per connected requestor and responder (bytes)
system.tol2bus.pkt_size_system.cpu.icache.mem_side_port::system.l2.cpu_side_port        32576                       # Cumulative packet size per connected requestor and responder (bytes)
system.tol2bus.pkt_size_system.cpu.dcache.mem_side_port::system.l2.cpu_side_port     99581632                       # Cumulative packet size per connected requestor and responder (bytes)
system.tol2bus.pkt_size::total               99614208                       # Cumulative packet size per connected requestor and responder (bytes)
system.tol2bus.snoops                            1336                       # Total snoops (count)
system.tol2bus.snoopTraffic                     77376                       # Total snoop traffic (bytes)
system.tol2bus.snoop_fanout::samples           780355                       # Request fanout histogram
system.tol2bus.snoop_fanout::mean            0.000132                       # Request fanout histogram
system.tol2bus.snoop_fanout::stdev           0.011488                       # Request fanout histogram
system.tol2bus.snoop_fanout::underflows             0      0.00%      0.00% # Request fanout histogram
system.tol2bus.snoop_fanout::0                 780252     99.99%     99.99% # Request fanout histogram
system.tol2bus.snoop_fanout::1                    103      0.01%    100.00% # Request fanout histogram
system.tol2bus.snoop_fanout::2                      0      0.00%    100.00% # Request fanout histogram
system.tol2bus.snoop_fanout::3                      0      0.00%    100.00% # Request fanout histogram
system.tol2bus.snoop_fanout::4                      0      0.00%    100.00% # Request fanout histogram
system.tol2bus.snoop_fanout::overflows              0      0.00%    100.00% # Request fanout histogram
system.tol2bus.snoop_fanout::min_value              0                       # Request fanout histogram
system.tol2bus.snoop_fanout::max_value              1                       # Request fanout histogram
system.tol2bus.snoop_fanout::total             780355                       # Request fanout histogram
system.tol2bus.power_state.pwrStateResidencyTicks::UNDEFINED  13058910500                       # Cumulative time (in ticks) in various power states
system.tol2bus.reqLayer0.occupancy         1555730000                       # Layer occupancy (ticks)
system.tol2bus.reqLayer0.utilization             11.9                       # Layer utilization (%)
system.tol2bus.respLayer0.occupancy            727500                       # Layer occupancy (ticks)
system.tol2bus.respLayer0.utilization             0.0                       # Layer utilization (%)
system.tol2bus.respLayer1.occupancy        1167799500                       # Layer occupancy (ticks)
system.tol2bus.respLayer1.utilization             8.9                       # Layer utilization (%)
system.voltage_domain.voltage                       1                       # Voltage in Volts

---------- End Simulation Statistics   ----------
