
---------- Begin Simulation Statistics ----------
final_tick                                11983563410                       # Number of ticks from beginning of simulation (restored from checkpoints and never reset)
host_inst_rate                                 153136                       # Simulator instruction rate (inst/s)
host_mem_usage                                 656628                       # Number of bytes of host memory used
host_op_rate                                   272603                       # Simulator op (including micro ops) rate (op/s)
host_seconds                                    65.27                       # Real time elapsed on the host
host_tick_rate                              183586000                       # Simulator tick rate (ticks/s)
sim_freq                                 1000000000000                       # Frequency of simulated ticks
sim_insts                                     9995921                       # Number of instructions simulated
sim_ops                                      17794161                       # Number of ops (including micro ops) simulated
sim_seconds                                  0.011984                       # Number of seconds simulated
sim_ticks                                 11983563410                       # Number of ticks simulated
system.cpu.cc_regfile_reads                  11359484                       # number of cc regfile reads
system.cpu.cc_regfile_writes                  9085673                       # number of cc regfile writes
system.cpu.committedInsts                     9995921                       # Number of Instructions Simulated
system.cpu.committedOps                      17794161                       # Number of Ops (including micro ops) Simulated
system.cpu.cpi                               2.634825                       # CPI: Cycles Per Instruction
system.cpu.cpi_total                         2.634825                       # CPI: Total CPI of All Threads
system.cpu.fp_regfile_reads                   4376538                       # number of floating regfile reads
system.cpu.fp_regfile_writes                  2000724                       # number of floating regfile writes
system.cpu.idleCycles                           41373                       # Total number of cycles that the CPU has spent unscheduled due to idling
system.cpu.iew.branchMispredicts                 1108                       # Number of branch mispredicts detected at execute
system.cpu.iew.exec_branches                  2272097                       # Number of branches executed
system.cpu.iew.exec_nop                             0                       # number of nop insts executed
system.cpu.iew.exec_rate                     0.677982                       # Inst execution rate
system.cpu.iew.exec_refs                      2335968                       # number of memory reference insts executed
system.cpu.iew.exec_stores                    2207020                       # Number of stores executed
system.cpu.iew.exec_swp                             0                       # number of swp insts executed
system.cpu.iew.iewBlockCycles                  149861                       # Number of cycles IEW is blocking
system.cpu.iew.iewDispLoadInsts                129408                       # Number of dispatched load instructions
system.cpu.iew.iewDispNonSpecInsts                 17                       # Number of dispatched non-speculative instructions
system.cpu.iew.iewDispSquashedInsts                22                       # Number of squashed instructions skipped by dispatch
system.cpu.iew.iewDispStoreInsts              2207525                       # Number of dispatched store instructions
system.cpu.iew.iewDispatchedInsts            17861434                       # Number of instructions dispatched to IQ
system.cpu.iew.iewExecLoadInsts                128948                       # Number of load instructions executed
system.cpu.iew.iewExecSquashedInsts              1169                       # Number of squashed instructions skipped in execute
system.cpu.iew.iewExecutedInsts              17856361                       # Number of executed instructions
system.cpu.iew.iewIQFullEvents                  31219                       # Number of times the IQ has become full, causing a stall
system.cpu.iew.iewIdleCycles                        0                       # Number of cycles IEW is idle
system.cpu.iew.iewLSQFullEvents               6523010                       # Number of times the LSQ has become full, causing a stall
system.cpu.iew.iewSquashCycles                   1237                       # Number of cycles IEW is squashing
system.cpu.iew.iewUnblockCycles               6569759                       # Number of cycles IEW is unblocking
system.cpu.iew.memOrderViolationEvents             11                       # Number of memory order violations
system.cpu.iew.predictedNotTakenIncorrect          739                       # Number of branches that were predicted not taken incorrectly
system.cpu.iew.predictedTakenIncorrect            369                       # Number of branches that were predicted taken incorrectly
system.cpu.iew.wb_consumers                  18132907                       # num instructions consuming a value
system.cpu.iew.wb_count                      17848746                       # cumulative count of insts written-back
system.cpu.iew.wb_fanout                     0.656519                       # average fanout of values written-back
system.cpu.iew.wb_producers                  11904592                       # num instructions producing a value
system.cpu.iew.wb_rate                       0.677693                       # insts written-back per cycle
system.cpu.iew.wb_sent                       17855940                       # cumulative count of insts sent to commit
system.cpu.int_regfile_reads                 22742179                       # number of integer regfile reads
system.cpu.int_regfile_writes                11376668                       # number of integer regfile writes
system.cpu.ipc                               0.379532                       # IPC: Instructions Per Cycle
system.cpu.ipc_total                         0.379532                       # IPC: Total IPC of All Threads
system.cpu.iq.FU_type_0::No_OpClass               788      0.00%      0.00% # Type of FU issued
system.cpu.iq.FU_type_0::IntAlu              14018542     78.50%     78.51% # Type of FU issued
system.cpu.iq.FU_type_0::IntMult                 1321      0.01%     78.51% # Type of FU issued
system.cpu.iq.FU_type_0::IntDiv                    30      0.00%     78.51% # Type of FU issued
system.cpu.iq.FU_type_0::FloatAdd                 145      0.00%     78.51% # Type of FU issued
system.cpu.iq.FU_type_0::FloatCmp                   0      0.00%     78.51% # Type of FU issued
system.cpu.iq.FU_type_0::FloatCvt                   0      0.00%     78.51% # Type of FU issued
system.cpu.iq.FU_type_0::FloatMult                  0      0.00%     78.51% # Type of FU issued
system.cpu.iq.FU_type_0::FloatMultAcc               0      0.00%     78.51% # Type of FU issued
system.cpu.iq.FU_type_0::FloatDiv                   0      0.00%     78.51% # Type of FU issued
system.cpu.iq.FU_type_0::FloatMisc                  0      0.00%     78.51% # Type of FU issued
system.cpu.iq.FU_type_0::FloatSqrt                  0      0.00%     78.51% # Type of FU issued
system.cpu.iq.FU_type_0::SimdAdd               499996      2.80%     81.31% # Type of FU issued
system.cpu.iq.FU_type_0::SimdAddAcc                 0      0.00%     81.31% # Type of FU issued
system.cpu.iq.FU_type_0::SimdAlu               125178      0.70%     82.02% # Type of FU issued
system.cpu.iq.FU_type_0::SimdCmp                    0      0.00%     82.02% # Type of FU issued
system.cpu.iq.FU_type_0::SimdCvt               125046      0.70%     82.72% # Type of FU issued
system.cpu.iq.FU_type_0::SimdMisc              750207      4.20%     86.92% # Type of FU issued
system.cpu.iq.FU_type_0::SimdMult                   0      0.00%     86.92% # Type of FU issued
system.cpu.iq.FU_type_0::SimdMultAcc                0      0.00%     86.92% # Type of FU issued
system.cpu.iq.FU_type_0::SimdShift                 13      0.00%     86.92% # Type of FU issued
system.cpu.iq.FU_type_0::SimdShiftAcc               0      0.00%     86.92% # Type of FU issued
system.cpu.iq.FU_type_0::SimdDiv                    0      0.00%     86.92% # Type of FU issued
system.cpu.iq.FU_type_0::SimdSqrt                   0      0.00%     86.92% # Type of FU issued
system.cpu.iq.FU_type_0::SimdFloatAdd               0      0.00%     86.92% # Type of FU issued
system.cpu.iq.FU_type_0::SimdFloatAlu               0      0.00%     86.92% # Type of FU issued
system.cpu.iq.FU_type_0::SimdFloatCmp               0      0.00%     86.92% # Type of FU issued
system.cpu.iq.FU_type_0::SimdFloatCvt               0      0.00%     86.92% # Type of FU issued
system.cpu.iq.FU_type_0::SimdFloatDiv               0      0.00%     86.92% # Type of FU issued
system.cpu.iq.FU_type_0::SimdFloatMisc              0      0.00%     86.92% # Type of FU issued
system.cpu.iq.FU_type_0::SimdFloatMult              0      0.00%     86.92% # Type of FU issued
system.cpu.iq.FU_type_0::SimdFloatMultAcc            0      0.00%     86.92% # Type of FU issued
system.cpu.iq.FU_type_0::SimdFloatSqrt              0      0.00%     86.92% # Type of FU issued
system.cpu.iq.FU_type_0::SimdReduceAdd              0      0.00%     86.92% # Type of FU issued
system.cpu.iq.FU_type_0::SimdReduceAlu              0      0.00%     86.92% # Type of FU issued
system.cpu.iq.FU_type_0::SimdReduceCmp              0      0.00%     86.92% # Type of FU issued
system.cpu.iq.FU_type_0::SimdFloatReduceAdd            0      0.00%     86.92% # Type of FU issued
system.cpu.iq.FU_type_0::SimdFloatReduceCmp            0      0.00%     86.92% # Type of FU issued
system.cpu.iq.FU_type_0::SimdAes                    0      0.00%     86.92% # Type of FU issued
system.cpu.iq.FU_type_0::SimdAesMix                 0      0.00%     86.92% # Type of FU issued
system.cpu.iq.FU_type_0::SimdSha1Hash               0      0.00%     86.92% # Type of FU issued
system.cpu.iq.FU_type_0::SimdSha1Hash2              0      0.00%     86.92% # Type of FU issued
system.cpu.iq.FU_type_0::SimdSha256Hash             0      0.00%     86.92% # Type of FU issued
system.cpu.iq.FU_type_0::SimdSha256Hash2            0      0.00%     86.92% # Type of FU issued
system.cpu.iq.FU_type_0::SimdShaSigma2              0      0.00%     86.92% # Type of FU issued
system.cpu.iq.FU_type_0::SimdShaSigma3              0      0.00%     86.92% # Type of FU issued
system.cpu.iq.FU_type_0::SimdPredAlu                0      0.00%     86.92% # Type of FU issued
system.cpu.iq.FU_type_0::MemRead                 4083      0.02%     86.94% # Type of FU issued
system.cpu.iq.FU_type_0::MemWrite             2206589     12.36%     99.30% # Type of FU issued
system.cpu.iq.FU_type_0::FloatMemRead          125064      0.70%    100.00% # Type of FU issued
system.cpu.iq.FU_type_0::FloatMemWrite            528      0.00%    100.00% # Type of FU issued
system.cpu.iq.FU_type_0::IprAccess                  0      0.00%    100.00% # Type of FU issued
system.cpu.iq.FU_type_0::InstPrefetch               0      0.00%    100.00% # Type of FU issued
system.cpu.iq.FU_type_0::total               17857530                       # Type of FU issued
system.cpu.iq.fp_alu_accesses                 2282328                       # Number of floating point alu accesses
system.cpu.iq.fp_inst_queue_reads             4283649                       # Number of floating instruction queue reads
system.cpu.iq.fp_inst_queue_wakeup_accesses      2001291                       # Number of floating instruction queue wakeup accesses
system.cpu.iq.fp_inst_queue_writes            2001638                       # Number of floating instruction queue writes
system.cpu.iq.fu_busy_cnt                      336159                       # FU busy when requested
system.cpu.iq.fu_busy_rate                   0.018824                       # FU busy rate (busy events/executed inst)
system.cpu.iq.fu_full::No_OpClass                   0      0.00%      0.00% # attempts to use FU when none available
system.cpu.iq.fu_full::IntAlu                   55089     16.39%     16.39% # attempts to use FU when none available
system.cpu.iq.fu_full::IntMult                      0      0.00%     16.39% # attempts to use FU when none available
system.cpu.iq.fu_full::IntDiv                       0      0.00%     16.39% # attempts to use FU when none available
system.cpu.iq.fu_full::FloatAdd                     0      0.00%     16.39% # attempts to use FU when none available
system.cpu.iq.fu_full::FloatCmp                     0      0.00%     16.39% # attempts to use FU when none available
system.cpu.iq.fu_full::FloatCvt                     0      0.00%     16.39% # attempts to use FU when none available
system.cpu.iq.fu_full::FloatMult                    0      0.00%     16.39% # attempts to use FU when none available
system.cpu.iq.fu_full::FloatMultAcc                 0      0.00%     16.39% # attempts to use FU when none available
system.cpu.iq.fu_full::FloatDiv                     0      0.00%     16.39% # attempts to use FU when none available
system.cpu.iq.fu_full::FloatMisc                    0      0.00%     16.39% # attempts to use FU when none available
system.cpu.iq.fu_full::FloatSqrt                    0      0.00%     16.39% # attempts to use FU when none available
system.cpu.iq.fu_full::SimdAdd                      0      0.00%     16.39% # attempts to use FU when none available
system.cpu.iq.fu_full::SimdAddAcc                   0      0.00%     16.39% # attempts to use FU when none available
system.cpu.iq.fu_full::SimdAlu                  93660     27.86%     44.25% # attempts to use FU when none available
system.cpu.iq.fu_full::SimdCmp                      0      0.00%     44.25% # attempts to use FU when none available
system.cpu.iq.fu_full::SimdCvt                 124870     37.15%     81.40% # attempts to use FU when none available
system.cpu.iq.fu_full::SimdMisc                 62474     18.58%     99.98% # attempts to use FU when none available
system.cpu.iq.fu_full::SimdMult                     0      0.00%     99.98% # attempts to use FU when none available
system.cpu.iq.fu_full::SimdMultAcc                  0      0.00%     99.98% # attempts to use FU when none available
system.cpu.iq.fu_full::SimdShift                    0      0.00%     99.98% # attempts to use FU when none available
system.cpu.iq.fu_full::SimdShiftAcc                 0      0.00%     99.98% # attempts to use FU when none available
system.cpu.iq.fu_full::SimdDiv                      0      0.00%     99.98% # attempts to use FU when none available
system.cpu.iq.fu_full::SimdSqrt                     0      0.00%     99.98% # attempts to use FU when none available
system.cpu.iq.fu_full::SimdFloatAdd                 0      0.00%     99.98% # attempts to use FU when none available
system.cpu.iq.fu_full::SimdFloatAlu                 0      0.00%     99.98% # attempts to use FU when none available
system.cpu.iq.fu_full::SimdFloatCmp                 0      0.00%     99.98% # attempts to use FU when none available
system.cpu.iq.fu_full::SimdFloatCvt                 0      0.00%     99.98% # attempts to use FU when none available
system.cpu.iq.fu_full::SimdFloatDiv                 0      0.00%     99.98% # attempts to use FU when none available
system.cpu.iq.fu_full::SimdFloatMisc                0      0.00%     99.98% # attempts to use FU when none available
system.cpu.iq.fu_full::SimdFloatMult                0      0.00%     99.98% # attempts to use FU when none available
system.cpu.iq.fu_full::SimdFloatMultAcc             0      0.00%     99.98% # attempts to use FU when none available
system.cpu.iq.fu_full::SimdFloatSqrt                0      0.00%     99.98% # attempts to use FU when none available
system.cpu.iq.fu_full::SimdReduceAdd                0      0.00%     99.98% # attempts to use FU when none available
system.cpu.iq.fu_full::SimdReduceAlu                0      0.00%     99.98% # attempts to use FU when none available
system.cpu.iq.fu_full::SimdReduceCmp                0      0.00%     99.98% # attempts to use FU when none available
system.cpu.iq.fu_full::SimdFloatReduceAdd            0      0.00%     99.98% # attempts to use FU when none available
system.cpu.iq.fu_full::SimdFloatReduceCmp            0      0.00%     99.98% # attempts to use FU when none available
system.cpu.iq.fu_full::SimdAes                      0      0.00%     99.98% # attempts to use FU when none available
system.cpu.iq.fu_full::SimdAesMix                   0      0.00%     99.98% # attempts to use FU when none available
system.cpu.iq.fu_full::SimdSha1Hash                 0      0.00%     99.98% # attempts to use FU when none available
system.cpu.iq.fu_full::SimdSha1Hash2                0      0.00%     99.98% # attempts to use FU when none available
system.cpu.iq.fu_full::SimdSha256Hash               0      0.00%     99.98% # attempts to use FU when none available
system.cpu.iq.fu_full::SimdSha256Hash2              0      0.00%     99.98% # attempts to use FU when none available
system.cpu.iq.fu_full::SimdShaSigma2                0      0.00%     99.98% # attempts to use FU when none available
system.cpu.iq.fu_full::SimdShaSigma3                0      0.00%     99.98% # attempts to use FU when none available
system.cpu.iq.fu_full::SimdPredAlu                  0      0.00%     99.98% # attempts to use FU when none available
system.cpu.iq.fu_full::MemRead                     35      0.01%     99.99% # attempts to use FU when none available
system.cpu.iq.fu_full::MemWrite                    22      0.01%    100.00% # attempts to use FU when none available
system.cpu.iq.fu_full::FloatMemRead                 2      0.00%    100.00% # attempts to use FU when none available
system.cpu.iq.fu_full::FloatMemWrite                7      0.00%    100.00% # attempts to use FU when none available
system.cpu.iq.fu_full::IprAccess                    0      0.00%    100.00% # attempts to use FU when none available
system.cpu.iq.fu_full::InstPrefetch                 0      0.00%    100.00% # attempts to use FU when none available
system.cpu.iq.int_alu_accesses               15910573                       # Number of integer alu accesses
system.cpu.iq.int_inst_queue_reads           58063770                       # Number of integer instruction queue reads
system.cpu.iq.int_inst_queue_wakeup_accesses     15847455                       # Number of integer instruction queue wakeup accesses
system.cpu.iq.int_inst_queue_writes          15927073                       # Number of integer instruction queue writes
system.cpu.iq.iqInstsAdded                   17861385                       # Number of instructions added to the IQ (excludes non-spec)
system.cpu.iq.iqInstsIssued                  17857530                       # Number of instructions issued
system.cpu.iq.iqNonSpecInstsAdded                  49                       # Number of non-speculative instructions added to the IQ
system.cpu.iq.iqSquashedInstsExamined           67267                       # Number of squashed instructions iterated over during squash; mainly for profiling
system.cpu.iq.iqSquashedInstsIssued                70                       # Number of squashed instructions issued
system.cpu.iq.iqSquashedNonSpecRemoved             37                       # Number of squashed non-spec instructions that were removed
system.cpu.iq.iqSquashedOperandsExamined        45846                       # Number of squashed operands that are examined and possibly removed from graph
system.cpu.iq.issued_per_cycle::samples      26296130                       # Number of insts issued each cycle
system.cpu.iq.issued_per_cycle::mean         0.679093                       # Number of insts issued each cycle
system.cpu.iq.issued_per_cycle::stdev        1.509212                       # Number of insts issued each cycle
system.cpu.iq.issued_per_cycle::underflows            0      0.00%      0.00% # Number of insts issued each cycle
system.cpu.iq.issued_per_cycle::0            20644174     78.51%     78.51% # Number of insts issued each cycle
system.cpu.iq.issued_per_cycle::1             1004551      3.82%     82.33% # Number of insts issued each cycle
system.cpu.iq.issued_per_cycle::2             1571703      5.98%     88.30% # Number of insts issued each cycle
system.cpu.iq.issued_per_cycle::3              604985      2.30%     90.60% # Number of insts issued each cycle
system.cpu.iq.issued_per_cycle::4             1038834      3.95%     94.55% # Number of insts issued each cycle
system.cpu.iq.issued_per_cycle::5             1018153      3.87%     98.43% # Number of insts issued each cycle
system.cpu.iq.issued_per_cycle::6              325952      1.24%     99.67% # Number of insts issued each cycle
system.cpu.iq.issued_per_cycle::7                9419      0.04%     99.70% # Number of insts issued each cycle
system.cpu.iq.issued_per_cycle::8               78359      0.30%    100.00% # Number of insts issued each cycle
system.cpu.iq.issued_per_cycle::overflows            0      0.00%    100.00% # Number of insts issued each cycle
system.cpu.iq.issued_per_cycle::min_value            0                       # Number of insts issued each cycle
system.cpu.iq.issued_per_cycle::max_value            8                       # Number of insts issued each cycle
system.cpu.iq.issued_per_cycle::total        26296130                       # Number of insts issued each cycle
system.cpu.iq.rate                           0.678027                       # Inst issue rate
system.cpu.iq.vec_alu_accesses                      0                       # Number of vector alu accesses
system.cpu.iq.vec_inst_queue_reads                  0                       # Number of vector instruction queue reads
system.cpu.iq.vec_inst_queue_wakeup_accesses            0                       # Number of vector instruction queue wakeup accesses
system.cpu.iq.vec_inst_queue_writes                 0                       # Number of vector instruction queue writes
system.cpu.memDep0.conflictingLoads                38                       # Number of conflicting loads.
system.cpu.memDep0.conflictingStores               19                       # Number of conflicting stores.
system.cpu.memDep0.insertedLoads               129408                       # Number of loads inserted to the mem dependence unit.
system.cpu.memDep0.insertedStores             2207525                       # Number of stores inserted to the mem dependence unit.
system.cpu.misc_regfile_reads                 6881484                       # number of misc regfile reads
system.cpu.numCycles                         26337503                       # number of cpu cycles simulated
system.cpu.numWorkItemsCompleted                    0                       # number of work items this cpu completed
system.cpu.numWorkItemsStarted                      0                       # number of work items this cpu started
system.cpu.timesIdled                             318                       # Number of times that the entire CPU went into an idle state and unscheduled itself
system.cpu.workload.numSyscalls                    11                       # Number of system calls
system.membus.snoop_filter.hit_multi_requests            0                       # Number of requests hitting in the snoop filter with multiple (>1) holders of the requested data.
system.membus.snoop_filter.hit_multi_snoops            0                       # Number of snoops hitting in the snoop filter with multiple (>1) holders of the requested data.
system.membus.snoop_filter.hit_single_requests         1190                       # Number of requests hitting in the snoop filter with a single holder of the requested data.
system.membus.snoop_filter.hit_single_snoops            0                       # Number of snoops hitting in the snoop filter with a single holder of the requested data.
system.membus.snoop_filter.tot_requests         18658                       # Total number of requests made to the snoop filter.
system.membus.snoop_filter.tot_snoops               0                       # Total number of snoops made to the snoop filter.
system.tol2bus.snoop_filter.hit_multi_requests            0                       # Number of requests hitting in the snoop filter with multiple (>1) holders of the requested data.
system.tol2bus.snoop_filter.hit_multi_snoops            0                       # Number of snoops hitting in the snoop filter with multiple (>1) holders of the requested data.
system.tol2bus.snoop_filter.hit_single_requests       777469                       # Number of requests hitting in the snoop filter with a single holder of the requested data.
system.tol2bus.snoop_filter.hit_single_snoops           99                       # Number of snoops hitting in the snoop filter with a single holder of the requested data.
system.tol2bus.snoop_filter.tot_requests      1556424                       # Total number of requests made to the snoop filter.
system.tol2bus.snoop_filter.tot_snoops             99                       # Total number of snoops made to the snoop filter.
system.clk_domain.clock                          1000                       # Clock period in ticks
system.cpu.branchPred.lookups                 2277755                       # Number of BP lookups
system.cpu.branchPred.condPredicted           2276526                       # Number of conditional branches predicted
system.cpu.branchPred.condIncorrect              1052                       # Number of conditional branches incorrect
system.cpu.branchPred.BTBLookups              2273940                       # Number of BTB lookups
system.cpu.branchPred.BTBHits                 2273141                       # Number of BTB hits
system.cpu.branchPred.BTBHitPct             99.964863                       # BTB Hit Percentage
system.cpu.branchPred.RASUsed                     299                       # Number of times the RAS was used to get a target.
system.cpu.branchPred.RASIncorrect                  0                       # Number of incorrect RAS predictions.
system.cpu.branchPred.indirectLookups             285                       # Number of indirect predictor lookups.
system.cpu.branchPred.indirectHits                 16                       # Number of indirect target hits.
system.cpu.branchPred.indirectMisses              269                       # Number of indirect misses.
system.cpu.branchPred.indirectMispredicted           91                       # Number of mispredicted indirect branches.
system.cpu.commit.commitSquashedInsts           67377                       # The number of squashed insts skipped by commit
system.cpu.commit.commitNonSpecStalls              12                       # The number of times commit has been forced to stall to communicate backwards
system.cpu.commit.branchMispredicts               969                       # The number of times a branch was mispredicted
system.cpu.commit.numCommittedDist::samples     26287048                       # Number of insts commited each cycle
system.cpu.commit.numCommittedDist::mean     0.676917                       # Number of insts commited each cycle
system.cpu.commit.numCommittedDist::stdev     1.533032                       # Number of insts commited each cycle
system.cpu.commit.numCommittedDist::underflows            0      0.00%      0.00% # Number of insts commited each cycle
system.cpu.commit.numCommittedDist::0        20731656     78.87%     78.87% # Number of insts commited each cycle
system.cpu.commit.numCommittedDist::1          244039      0.93%     79.79% # Number of insts commited each cycle
system.cpu.commit.numCommittedDist::2         2257603      8.59%     88.38% # Number of insts commited each cycle
system.cpu.commit.numCommittedDist::3         1476656      5.62%     94.00% # Number of insts commited each cycle
system.cpu.commit.numCommittedDist::4          724467      2.76%     96.76% # Number of insts commited each cycle
system.cpu.commit.numCommittedDist::5          287293      1.09%     97.85% # Number of insts commited each cycle
system.cpu.commit.numCommittedDist::6           43003      0.16%     98.01% # Number of insts commited each cycle
system.cpu.commit.numCommittedDist::7          166051      0.63%     98.64% # Number of insts commited each cycle
system.cpu.commit.numCommittedDist::8          356280      1.36%    100.00% # Number of insts commited each cycle
system.cpu.commit.numCommittedDist::overflows            0      0.00%    100.00% # Number of insts commited each cycle
system.cpu.commit.numCommittedDist::min_value            0                       # Number of insts commited each cycle
system.cpu.commit.numCommittedDist::max_value            8                       # Number of insts commited each cycle
system.cpu.commit.numCommittedDist::total     26287048                       # Number of insts commited each cycle
system.cpu.commit.instsCommitted              9995921                       # Number of instructions committed
system.cpu.commit.opsCommitted               17794161                       # Number of ops (including micro ops) committed
system.cpu.commit.memRefs                     2327019                       # Number of memory references committed
system.cpu.commit.loads                        127545                       # Number of loads committed
system.cpu.commit.amos                              0                       # Number of atomic instructions committed
system.cpu.commit.membars                           8                       # Number of memory barriers committed
system.cpu.commit.branches                    2264230                       # Number of branches committed
system.cpu.commit.vector                            0                       # Number of committed Vector instructions.
system.cpu.commit.floating                    2001126                       # Number of committed floating point instructions.
system.cpu.commit.integer                    15918412                       # Number of committed integer instructions.
system.cpu.commit.functionCalls                   148                       # Number of function calls committed.
system.cpu.commit.committedInstType_0::No_OpClass          287      0.00%      0.00% # Class of committed instruction
system.cpu.commit.committedInstType_0::IntAlu     13965345     78.48%     78.48% # Class of committed instruction
system.cpu.commit.committedInstType_0::IntMult         1004      0.01%     78.49% # Class of committed instruction
system.cpu.commit.committedInstType_0::IntDiv           21      0.00%     78.49% # Class of committed instruction
system.cpu.commit.committedInstType_0::FloatAdd          135      0.00%     78.49% # Class of committed instruction
system.cpu.commit.committedInstType_0::FloatCmp            0      0.00%     78.49% # Class of committed instruction
system.cpu.commit.committedInstType_0::FloatCvt            0      0.00%     78.49% # Class of committed instruction
system.cpu.commit.committedInstType_0::FloatMult            0      0.00%     78.49% # Class of committed instruction
system.cpu.commit.committedInstType_0::FloatMultAcc            0      0.00%     78.49% # Class of committed instruction
system.cpu.commit.committedInstType_0::FloatDiv            0      0.00%     78.49% # Class of committed instruction
system.cpu.commit.committedInstType_0::FloatMisc            0      0.00%     78.49% # Class of committed instruction
system.cpu.commit.committedInstType_0::FloatSqrt            0      0.00%     78.49% # Class of committed instruction
system.cpu.commit.committedInstType_0::SimdAdd       499996      2.81%     81.30% # Class of committed instruction
system.cpu.commit.committedInstType_0::SimdAddAcc            0      0.00%     81.30% # Class of committed instruction
system.cpu.commit.committedInstType_0::SimdAlu       125100      0.70%     82.00% # Class of committed instruction
system.cpu.commit.committedInstType_0::SimdCmp            0      0.00%     82.00% # Class of committed instruction
system.cpu.commit.committedInstType_0::SimdCvt       125044      0.70%     82.71% # Class of committed instruction
system.cpu.commit.committedInstType_0::SimdMisc       750204      4.22%     86.92% # Class of committed instruction
system.cpu.commit.committedInstType_0::SimdMult            0      0.00%     86.92% # Class of committed instruction
system.cpu.commit.committedInstType_0::SimdMultAcc            0      0.00%     86.92% # Class of committed instruction
system.cpu.commit.committedInstType_0::SimdShift            6      0.00%     86.92% # Class of committed instruction
system.cpu.commit.committedInstType_0::SimdShiftAcc            0      0.00%     86.92% # Class of committed instruction
system.cpu.commit.committedInstType_0::SimdDiv            0      0.00%     86.92% # Class of committed instruction
system.cpu.commit.committedInstType_0::SimdSqrt            0      0.00%     86.92% # Class of committed instruction
system.cpu.commit.committedInstType_0::SimdFloatAdd            0      0.00%     86.92% # Class of committed instruction
system.cpu.commit.committedInstType_0::SimdFloatAlu            0      0.00%     86.92% # Class of committed instruction
system.cpu.commit.committedInstType_0::SimdFloatCmp            0      0.00%     86.92% # Class of committed instruction
system.cpu.commit.committedInstType_0::SimdFloatCvt            0      0.00%     86.92% # Class of committed instruction
system.cpu.commit.committedInstType_0::SimdFloatDiv            0      0.00%     86.92% # Class of committed instruction
system.cpu.commit.committedInstType_0::SimdFloatMisc            0      0.00%     86.92% # Class of committed instruction
system.cpu.commit.committedInstType_0::SimdFloatMult            0      0.00%     86.92% # Class of committed instruction
system.cpu.commit.committedInstType_0::SimdFloatMultAcc            0      0.00%     86.92% # Class of committed instruction
system.cpu.commit.committedInstType_0::SimdFloatSqrt            0      0.00%     86.92% # Class of committed instruction
system.cpu.commit.committedInstType_0::SimdReduceAdd            0      0.00%     86.92% # Class of committed instruction
system.cpu.commit.committedInstType_0::SimdReduceAlu            0      0.00%     86.92% # Class of committed instruction
system.cpu.commit.committedInstType_0::SimdReduceCmp            0      0.00%     86.92% # Class of committed instruction
system.cpu.commit.committedInstType_0::SimdFloatReduceAdd            0      0.00%     86.92% # Class of committed instruction
system.cpu.commit.committedInstType_0::SimdFloatReduceCmp            0      0.00%     86.92% # Class of committed instruction
system.cpu.commit.committedInstType_0::SimdAes            0      0.00%     86.92% # Class of committed instruction
system.cpu.commit.committedInstType_0::SimdAesMix            0      0.00%     86.92% # Class of committed instruction
system.cpu.commit.committedInstType_0::SimdSha1Hash            0      0.00%     86.92% # Class of committed instruction
system.cpu.commit.committedInstType_0::SimdSha1Hash2            0      0.00%     86.92% # Class of committed instruction
system.cpu.commit.committedInstType_0::SimdSha256Hash            0      0.00%     86.92% # Class of committed instruction
system.cpu.commit.committedInstType_0::SimdSha256Hash2            0      0.00%     86.92% # Class of committed instruction
system.cpu.commit.committedInstType_0::SimdShaSigma2            0      0.00%     86.92% # Class of committed instruction
system.cpu.commit.committedInstType_0::SimdShaSigma3            0      0.00%     86.92% # Class of committed instruction
system.cpu.commit.committedInstType_0::SimdPredAlu            0      0.00%     86.92% # Class of committed instruction
system.cpu.commit.committedInstType_0::MemRead         2499      0.01%     86.94% # Class of committed instruction
system.cpu.commit.committedInstType_0::MemWrite      2199016     12.36%     99.29% # Class of committed instruction
system.cpu.commit.committedInstType_0::FloatMemRead       125046      0.70%    100.00% # Class of committed instruction
system.cpu.commit.committedInstType_0::FloatMemWrite          458      0.00%    100.00% # Class of committed instruction
system.cpu.commit.committedInstType_0::IprAccess            0      0.00%    100.00% # Class of committed instruction
system.cpu.commit.committedInstType_0::InstPrefetch            0      0.00%    100.00% # Class of committed instruction
system.cpu.commit.committedInstType_0::total     17794161                       # Class of committed instruction
system.cpu.commit.commitEligibleSamples        356280                       # number cycles where commit BW limit reached
system.cpu.dcache.demand_hits::.cpu.data      1502170                       # number of demand (read+write) hits
system.cpu.dcache.demand_hits::total          1502170                       # number of demand (read+write) hits
system.cpu.dcache.overall_hits::.cpu.data      1502170                       # number of overall hits
system.cpu.dcache.overall_hits::total         1502170                       # number of overall hits
system.cpu.dcache.demand_misses::.cpu.data       841561                       # number of demand (read+write) misses
system.cpu.dcache.demand_misses::total         841561                       # number of demand (read+write) misses
system.cpu.dcache.overall_misses::.cpu.data       841561                       # number of overall misses
system.cpu.dcache.overall_misses::total        841561                       # number of overall misses
system.cpu.dcache.demand_miss_latency::.cpu.data  11056352124                       # number of demand (read+write) miss cycles
system.cpu.dcache.demand_miss_latency::total  11056352124                       # number of demand (read+write) miss cycles
system.cpu.dcache.overall_miss_latency::.cpu.data  11056352124                       # number of overall miss cycles
system.cpu.dcache.overall_miss_latency::total  11056352124                       # number of overall miss cycles
system.cpu.dcache.demand_accesses::.cpu.data      2343731                       # number of demand (read+write) accesses
system.cpu.dcache.demand_accesses::total      2343731                       # number of demand (read+write) accesses
system.cpu.dcache.overall_accesses::.cpu.data      2343731                       # number of overall (read+write) accesses
system.cpu.dcache.overall_accesses::total      2343731                       # number of overall (read+write) accesses
system.cpu.dcache.demand_miss_rate::.cpu.data     0.359069                       # miss rate for demand accesses
system.cpu.dcache.demand_miss_rate::total     0.359069                       # miss rate for demand accesses
system.cpu.dcache.overall_miss_rate::.cpu.data     0.359069                       # miss rate for overall accesses
system.cpu.dcache.overall_miss_rate::total     0.359069                       # miss rate for overall accesses
system.cpu.dcache.demand_avg_miss_latency::.cpu.data 13137.909342                       # average overall miss latency
system.cpu.dcache.demand_avg_miss_latency::total 13137.909342                       # average overall miss latency
system.cpu.dcache.overall_avg_miss_latency::.cpu.data 13137.909342                       # average overall miss latency
system.cpu.dcache.overall_avg_miss_latency::total 13137.909342                       # average overall miss latency
system.cpu.dcache.blocked_cycles::no_mshrs         1235                       # number of cycles access was blocked
system.cpu.dcache.blocked_cycles::no_targets            0                       # number of cycles access was blocked
system.cpu.dcache.blocked::no_mshrs                19                       # number of cycles access was blocked
system.cpu.dcache.blocked::no_targets               0                       # number of cycles access was blocked
system.cpu.dcache.avg_blocked_cycles::no_mshrs           65                       # average number of cycles each access was blocked
system.cpu.dcache.avg_blocked_cycles::no_targets          nan                       # average number of cycles each access was blocked
system.cpu.dcache.writebacks::.writebacks       777366                       # number of writebacks
system.cpu.dcache.writebacks::total            777366                       # number of writebacks
system.cpu.dcache.demand_mshr_hits::.cpu.data        63092                       # number of demand (read+write) MSHR hits
system.cpu.dcache.demand_mshr_hits::total        63092                       # number of demand (read+write) MSHR hits
system.cpu.dcache.overall_mshr_hits::.cpu.data        63092                       # number of overall MSHR hits
system.cpu.dcache.overall_mshr_hits::total        63092                       # number of overall MSHR hits
system.cpu.dcache.demand_mshr_misses::.cpu.data       778469                       # number of demand (read+write) MSHR misses
system.cpu.dcache.demand_mshr_misses::total       778469                       # number of demand (read+write) MSHR misses
system.cpu.dcache.overall_mshr_misses::.cpu.data       778469                       # number of overall MSHR misses
system.cpu.dcache.overall_mshr_misses::total       778469                       # number of overall MSHR misses
system.cpu.dcache.demand_mshr_miss_latency::.cpu.data   9837001719                       # number of demand (read+write) MSHR miss cycles
system.cpu.dcache.demand_mshr_miss_latency::total   9837001719                       # number of demand (read+write) MSHR miss cycles
system.cpu.dcache.overall_mshr_miss_latency::.cpu.data   9837001719                       # number of overall MSHR miss cycles
system.cpu.dcache.overall_mshr_miss_latency::total   9837001719                       # number of overall MSHR miss cycles
system.cpu.dcache.demand_mshr_miss_rate::.cpu.data     0.332149                       # mshr miss rate for demand accesses
system.cpu.dcache.demand_mshr_miss_rate::total     0.332149                       # mshr miss rate for demand accesses
system.cpu.dcache.overall_mshr_miss_rate::.cpu.data     0.332149                       # mshr miss rate for overall accesses
system.cpu.dcache.overall_mshr_miss_rate::total     0.332149                       # mshr miss rate for overall accesses
system.cpu.dcache.demand_avg_mshr_miss_latency::.cpu.data 12636.343540                       # average overall mshr miss latency
system.cpu.dcache.demand_avg_mshr_miss_latency::total 12636.343540                       # average overall mshr miss latency
system.cpu.dcache.overall_avg_mshr_miss_latency::.cpu.data 12636.343540                       # average overall mshr miss latency
system.cpu.dcache.overall_avg_mshr_miss_latency::total 12636.343540                       # average overall mshr miss latency
system.cpu.dcache.replacements                 777445                       # number of replacements
system.cpu.dcache.ReadReq_hits::.cpu.data        65258                       # number of ReadReq hits
system.cpu.dcache.ReadReq_hits::total           65258                       # number of ReadReq hits
system.cpu.dcache.ReadReq_misses::.cpu.data        78998                       # number of ReadReq misses
system.cpu.dcache.ReadReq_misses::total         78998                       # number of ReadReq misses
system.cpu.dcache.ReadReq_miss_latency::.cpu.data    709772245                       # number of ReadReq miss cycles
system.cpu.dcache.ReadReq_miss_latency::total    709772245                       # number of ReadReq miss cycles
system.cpu.dcache.ReadReq_accesses::.cpu.data       144256                       # number of ReadReq accesses(hits+misses)
system.cpu.dcache.ReadReq_accesses::total       144256                       # number of ReadReq accesses(hits+misses)
system.cpu.dcache.ReadReq_miss_rate::.cpu.data     0.547624                       # miss rate for ReadReq accesses
system.cpu.dcache.ReadReq_miss_rate::total     0.547624                       # miss rate for ReadReq accesses
system.cpu.dcache.ReadReq_avg_miss_latency::.cpu.data  8984.686258                       # average ReadReq miss latency
system.cpu.dcache.ReadReq_avg_miss_latency::total  8984.686258                       # average ReadReq miss latency
system.cpu.dcache.ReadReq_mshr_hits::.cpu.data        63091                       # number of ReadReq MSHR hits
system.cpu.dcache.ReadReq_mshr_hits::total        63091                       # number of ReadReq MSHR hits
system.cpu.dcache.ReadReq_mshr_misses::.cpu.data        15907                       # number of ReadReq MSHR misses
system.cpu.dcache.ReadReq_mshr_misses::total        15907                       # number of ReadReq MSHR misses
system.cpu.dcache.ReadReq_mshr_miss_latency::.cpu.data    184428790                       # number of ReadReq MSHR miss cycles
system.cpu.dcache.ReadReq_mshr_miss_latency::total    184428790                       # number of ReadReq MSHR miss cycles
system.cpu.dcache.ReadReq_mshr_miss_rate::.cpu.data     0.110269                       # mshr miss rate for ReadReq accesses
system.cpu.dcache.ReadReq_mshr_miss_rate::total     0.110269                       # mshr miss rate for ReadReq accesses
system.cpu.dcache.ReadReq_avg_mshr_miss_latency::.cpu.data 11594.190608                       # average ReadReq mshr miss latency
system.cpu.dcache.ReadReq_avg_mshr_miss_latency::total 11594.190608                       # average ReadReq mshr miss latency
system.cpu.dcache.WriteReq_hits::.cpu.data      1436912                       # number of WriteReq hits
system.cpu.dcache.WriteReq_hits::total        1436912                       # number of WriteReq hits
system.cpu.dcache.WriteReq_misses::.cpu.data       762563                       # number of WriteReq misses
system.cpu.dcache.WriteReq_misses::total       762563                       # number of WriteReq misses
system.cpu.dcache.WriteReq_miss_latency::.cpu.data  10346579879                       # number of WriteReq miss cycles
system.cpu.dcache.WriteReq_miss_latency::total  10346579879                       # number of WriteReq miss cycles
system.cpu.dcache.WriteReq_accesses::.cpu.data      2199475                       # number of WriteReq accesses(hits+misses)
system.cpu.dcache.WriteReq_accesses::total      2199475                       # number of WriteReq accesses(hits+misses)
system.cpu.dcache.WriteReq_miss_rate::.cpu.data     0.346702                       # miss rate for WriteReq accesses
system.cpu.dcache.WriteReq_miss_rate::total     0.346702                       # miss rate for WriteReq accesses
system.cpu.dcache.WriteReq_avg_miss_latency::.cpu.data 13568.164045                       # average WriteReq miss latency
system.cpu.dcache.WriteReq_avg_miss_latency::total 13568.164045                       # average WriteReq miss latency
system.cpu.dcache.WriteReq_mshr_hits::.cpu.data            1                       # number of WriteReq MSHR hits
system.cpu.dcache.WriteReq_mshr_hits::total            1                       # number of WriteReq MSHR hits
system.cpu.dcache.WriteReq_mshr_misses::.cpu.data       762562                       # number of WriteReq MSHR misses
system.cpu.dcache.WriteReq_mshr_misses::total       762562                       # number of WriteReq MSHR misses
system.cpu.dcache.WriteReq_mshr_miss_latency::.cpu.data   9652572929                       # number of WriteReq MSHR miss cycles
system.cpu.dcache.WriteReq_mshr_miss_latency::total   9652572929                       # number of WriteReq MSHR miss cycles
system.cpu.dcache.WriteReq_mshr_miss_rate::.cpu.data     0.346702                       # mshr miss rate for WriteReq accesses
system.cpu.dcache.WriteReq_mshr_miss_rate::total     0.346702                       # mshr miss rate for WriteReq accesses
system.cpu.dcache.WriteReq_avg_mshr_miss_latency::.cpu.data 12658.082791                       # average WriteReq mshr miss latency
system.cpu.dcache.WriteReq_avg_mshr_miss_latency::total 12658.082791                       # average WriteReq mshr miss latency
system.cpu.dcache.power_state.pwrStateResidencyTicks::UNDEFINED  11983563410                       # Cumulative time (in ticks) in various power states
system.cpu.dcache.tags.tagsinuse          1016.674447                       # Cycle average of tags in use
system.cpu.dcache.tags.total_refs             2280639                       # Total number of references to valid blocks.
system.cpu.dcache.tags.sampled_refs            778469                       # Sample count of references to valid blocks.
system.cpu.dcache.tags.avg_refs              2.929647                       # Average number of references to valid blocks.
system.cpu.dcache.tags.warmup_cycle            174720                       # Cycle when the warmup percentage was hit.
system.cpu.dcache.tags.occ_blocks::.cpu.data  1016.674447                       # Average occupied blocks per requestor
system.cpu.dcache.tags.occ_percent::.cpu.data     0.992846                       # Average percentage of cache occupancy
system.cpu.dcache.tags.occ_percent::total     0.992846                       # Average percentage of cache occupancy
system.cpu.dcache.tags.occ_task_id_blocks::1024         1024                       # Occupied blocks per task id
system.cpu.dcache.tags.age_task_id_blocks_1024::0          366                       # Occupied blocks per task id
system.cpu.dcache.tags.age_task_id_blocks_1024::1          658                       # Occupied blocks per task id
system.cpu.dcache.tags.occ_task_id_percent::1024            1                       # Percentage of cache occupancy per task id
system.cpu.dcache.tags.tag_accesses          38278165                       # Number of tag accesses
system.cpu.dcache.tags.data_accesses         38278165                       # Number of data accesses
system.cpu.dcache.tags.power_state.pwrStateResidencyTicks::UNDEFINED  11983563410                       # Cumulative time (in ticks) in various power states
system.cpu.decode.idleCycles                   686226                       # Number of cycles decode is idle
system.cpu.decode.blockedCycles              23340758                       # Number of cycles decode is blocked
system.cpu.decode.runCycles                    699746                       # Number of cycles decode is running
system.cpu.decode.unblockCycles               1568163                       # Number of cycles decode is unblocking
system.cpu.decode.squashCycles                   1237                       # Number of cycles decode is squashing
system.cpu.decode.branchResolved              2270116                       # Number of times decode resolved a  branch
system.cpu.decode.branchMispred                   223                       # Number of times decode detected a branch misprediction
system.cpu.decode.decodedInsts               17869694                       # Number of instructions handled by decode
system.cpu.decode.squashedInsts                   910                       # Number of squashed instructions handled by decode
system.cpu.dtb.rdAccesses                      144515                       # TLB accesses on read requests
system.cpu.dtb.wrAccesses                     2207023                       # TLB accesses on write requests
system.cpu.dtb.rdMisses                           498                       # TLB misses on read requests
system.cpu.dtb.wrMisses                         47838                       # TLB misses on write requests
system.cpu.dtb.walker.power_state.pwrStateResidencyTicks::UNDEFINED  11983563410                       # Cumulative time (in ticks) in various power states
system.cpu.dtb_walker_cache.blocked_cycles::no_mshrs            0                       # number of cycles access was blocked
system.cpu.dtb_walker_cache.blocked_cycles::no_targets            0                       # number of cycles access was blocked
system.cpu.dtb_walker_cache.blocked::no_mshrs            0                       # number of cycles access was blocked
system.cpu.dtb_walker_cache.blocked::no_targets            0                       # number of cycles access was blocked
system.cpu.dtb_walker_cache.avg_blocked_cycles::no_mshrs          nan                       # average number of cycles each access was blocked
system.cpu.dtb_walker_cache.avg_blocked_cycles::no_targets          nan                       # average number of cycles each access was blocked
system.cpu.dtb_walker_cache.replacements            0                       # number of replacements
system.cpu.dtb_walker_cache.power_state.pwrStateResidencyTicks::UNDEFINED  11983563410                       # Cumulative time (in ticks) in various power states
system.cpu.dtb_walker_cache.tags.tagsinuse            0                       # Cycle average of tags in use
system.cpu.dtb_walker_cache.tags.total_refs            0                       # Total number of references to valid blocks.
system.cpu.dtb_walker_cache.tags.sampled_refs            0                       # Sample count of references to valid blocks.
system.cpu.dtb_walker_cache.tags.avg_refs          nan                       # Average number of references to valid blocks.
system.cpu.dtb_walker_cache.tags.warmup_cycle            0                       # Cycle when the warmup percentage was hit.
system.cpu.dtb_walker_cache.tags.tag_accesses            0                       # Number of tag accesses
system.cpu.dtb_walker_cache.tags.data_accesses            0                       # Number of data accesses
system.cpu.dtb_walker_cache.tags.power_state.pwrStateResidencyTicks::UNDEFINED  11983563410                       # Cumulative time (in ticks) in various power states
system.cpu.fetch.icacheStallCycles             147399                       # Number of cycles fetch is stalled on an Icache miss
system.cpu.fetch.insts                       10053061                       # Number of instructions fetch has processed
system.cpu.fetch.branches                     2277755                       # Number of branches that fetch encountered
system.cpu.fetch.predictedBranches            2273456                       # Number of branches that fetch has predicted taken
system.cpu.fetch.cycles                      26146239                       # Number of cycles fetch has run and was not squashing or blocked
system.cpu.fetch.squashCycles                    2902                       # Number of cycles fetch has spent squashing
system.cpu.fetch.miscStallCycles                  146                       # Number of cycles fetch has spent waiting on interrupts,or bad addresses, or out of MSHRs
system.cpu.fetch.pendingTrapStallCycles           860                       # Number of stall cycles due to pending traps
system.cpu.fetch.pendingQuiesceStallCycles            2                       # Number of stall cycles due to pending quiesce instructions
system.cpu.fetch.icacheWaitRetryStallCycles           33                       # Number of stall cycles due to full MSHR
system.cpu.fetch.cacheLines                    130892                       # Number of cache lines fetched
system.cpu.fetch.icacheSquashes                   437                       # Number of outstanding Icache misses that were squashed
system.cpu.fetch.nisnDist::samples           26296130                       # Number of instructions fetched each cycle (Total)
system.cpu.fetch.nisnDist::mean              0.680551                       # Number of instructions fetched each cycle (Total)
system.cpu.fetch.nisnDist::stdev             1.956666                       # Number of instructions fetched each cycle (Total)
system.cpu.fetch.nisnDist::underflows               0      0.00%      0.00% # Number of instructions fetched each cycle (Total)
system.cpu.fetch.nisnDist::0                 22959366     87.31%     87.31% # Number of instructions fetched each cycle (Total)
system.cpu.fetch.nisnDist::1                   346593      1.32%     88.63% # Number of instructions fetched each cycle (Total)
system.cpu.fetch.nisnDist::2                   253971      0.97%     89.59% # Number of instructions fetched each cycle (Total)
system.cpu.fetch.nisnDist::3                   207421      0.79%     90.38% # Number of instructions fetched each cycle (Total)
system.cpu.fetch.nisnDist::4                   254380      0.97%     91.35% # Number of instructions fetched each cycle (Total)
system.cpu.fetch.nisnDist::5                   190455      0.72%     92.08% # Number of instructions fetched each cycle (Total)
system.cpu.fetch.nisnDist::6                   377962      1.44%     93.51% # Number of instructions fetched each cycle (Total)
system.cpu.fetch.nisnDist::7                  1466355      5.58%     99.09% # Number of instructions fetched each cycle (Total)
system.cpu.fetch.nisnDist::8                   239627      0.91%    100.00% # Number of instructions fetched each cycle (Total)
system.cpu.fetch.nisnDist::overflows                0      0.00%    100.00% # Number of instructions fetched each cycle (Total)
system.cpu.fetch.nisnDist::min_value                0                       # Number of instructions fetched each cycle (Total)
system.cpu.fetch.nisnDist::max_value                8                       # Number of instructions fetched each cycle (Total)
system.cpu.fetch.nisnDist::total             26296130                       # Number of instructions fetched each cycle (Total)
system.cpu.fetch.branchRate                  0.086483                       # Number of branch fetches per cycle
system.cpu.fetch.rate                        0.381701                       # Number of inst fetches per cycle
system.cpu.icache.demand_hits::.cpu.inst       130271                       # number of demand (read+write) hits
system.cpu.icache.demand_hits::total           130271                       # number of demand (read+write) hits
system.cpu.icache.overall_hits::.cpu.inst       130271                       # number of overall hits
system.cpu.icache.overall_hits::total          130271                       # number of overall hits
system.cpu.icache.demand_misses::.cpu.inst          621                       # number of demand (read+write) misses
system.cpu.icache.demand_misses::total            621                       # number of demand (read+write) misses
system.cpu.icache.overall_misses::.cpu.inst          621                       # number of overall misses
system.cpu.icache.overall_misses::total           621                       # number of overall misses
system.cpu.icache.demand_miss_latency::.cpu.inst     47866909                       # number of demand (read+write) miss cycles
system.cpu.icache.demand_miss_latency::total     47866909                       # number of demand (read+write) miss cycles
system.cpu.icache.overall_miss_latency::.cpu.inst     47866909                       # number of overall miss cycles
system.cpu.icache.overall_miss_latency::total     47866909                       # number of overall miss cycles
system.cpu.icache.demand_accesses::.cpu.inst       130892                       # number of demand (read+write) accesses
system.cpu.icache.demand_accesses::total       130892                       # number of demand (read+write) accesses
system.cpu.icache.overall_accesses::.cpu.inst       130892                       # number of overall (read+write) accesses
system.cpu.icache.overall_accesses::total       130892                       # number of overall (read+write) accesses
system.cpu.icache.demand_miss_rate::.cpu.inst     0.004744                       # miss rate for demand accesses
system.cpu.icache.demand_miss_rate::total     0.004744                       # miss rate for demand accesses
system.cpu.icache.overall_miss_rate::.cpu.inst     0.004744                       # miss rate for overall accesses
system.cpu.icache.overall_miss_rate::total     0.004744                       # miss rate for overall accesses
system.cpu.icache.demand_avg_miss_latency::.cpu.inst 77080.368760                       # average overall miss latency
system.cpu.icache.demand_avg_miss_latency::total 77080.368760                       # average overall miss latency
system.cpu.icache.overall_avg_miss_latency::.cpu.inst 77080.368760                       # average overall miss latency
system.cpu.icache.overall_avg_miss_latency::total 77080.368760                       # average overall miss latency
system.cpu.icache.blocked_cycles::no_mshrs          522                       # number of cycles access was blocked
system.cpu.icache.blocked_cycles::no_targets            0                       # number of cycles access was blocked
system.cpu.icache.blocked::no_mshrs                 5                       # number of cycles access was blocked
system.cpu.icache.blocked::no_targets               0                       # number of cycles access was blocked
system.cpu.icache.avg_blocked_cycles::no_mshrs   104.400000                       # average number of cycles each access was blocked
system.cpu.icache.avg_blocked_cycles::no_targets          nan                       # average number of cycles each access was blocked
system.cpu.icache.writebacks::.writebacks           24                       # number of writebacks
system.cpu.icache.writebacks::total                24                       # number of writebacks
system.cpu.icache.demand_mshr_hits::.cpu.inst          135                       # number of demand (read+write) MSHR hits
system.cpu.icache.demand_mshr_hits::total          135                       # number of demand (read+write) MSHR hits
system.cpu.icache.overall_mshr_hits::.cpu.inst          135                       # number of overall MSHR hits
system.cpu.icache.overall_mshr_hits::total          135                       # number of overall MSHR hits
system.cpu.icache.demand_mshr_misses::.cpu.inst          486                       # number of demand (read+write) MSHR misses
system.cpu.icache.demand_mshr_misses::total          486                       # number of demand (read+write) MSHR misses
system.cpu.icache.overall_mshr_misses::.cpu.inst          486                       # number of overall MSHR misses
system.cpu.icache.overall_mshr_misses::total          486                       # number of overall MSHR misses
system.cpu.icache.demand_mshr_miss_latency::.cpu.inst     39015794                       # number of demand (read+write) MSHR miss cycles
system.cpu.icache.demand_mshr_miss_latency::total     39015794                       # number of demand (read+write) MSHR miss cycles
system.cpu.icache.overall_mshr_miss_latency::.cpu.inst     39015794                       # number of overall MSHR miss cycles
system.cpu.icache.overall_mshr_miss_latency::total     39015794                       # number of overall MSHR miss cycles
system.cpu.icache.demand_mshr_miss_rate::.cpu.inst     0.003713                       # mshr miss rate for demand accesses
system.cpu.icache.demand_mshr_miss_rate::total     0.003713                       # mshr miss rate for demand accesses
system.cpu.icache.overall_mshr_miss_rate::.cpu.inst     0.003713                       # mshr miss rate for overall accesses
system.cpu.icache.overall_mshr_miss_rate::total     0.003713                       # mshr miss rate for overall accesses
system.cpu.icache.demand_avg_mshr_miss_latency::.cpu.inst 80279.411523                       # average overall mshr miss latency
system.cpu.icache.demand_avg_mshr_miss_latency::total 80279.411523                       # average overall mshr miss latency
system.cpu.icache.overall_avg_mshr_miss_latency::.cpu.inst 80279.411523                       # average overall mshr miss latency
system.cpu.icache.overall_avg_mshr_miss_latency::total 80279.411523                       # average overall mshr miss latency
system.cpu.icache.replacements                     24                       # number of replacements
system.cpu.icache.ReadReq_hits::.cpu.inst       130271                       # number of ReadReq hits
system.cpu.icache.ReadReq_hits::total          130271                       # number of ReadReq hits
system.cpu.icache.ReadReq_misses::.cpu.inst          621                       # number of ReadReq misses
system.cpu.icache.ReadReq_misses::total           621                       # number of ReadReq misses
system.cpu.icache.ReadReq_miss_latency::.cpu.inst     47866909                       # number of ReadReq miss cycles
system.cpu.icache.ReadReq_miss_latency::total     47866909                       # number of ReadReq miss cycles
system.cpu.icache.ReadReq_accesses::.cpu.inst       130892                       # number of ReadReq accesses(hits+misses)
system.cpu.icache.ReadReq_accesses::total       130892                       # number of ReadReq accesses(hits+misses)
system.cpu.icache.ReadReq_miss_rate::.cpu.inst     0.004744                       # miss rate for ReadReq accesses
system.cpu.icache.ReadReq_miss_rate::total     0.004744                       # miss rate for ReadReq accesses
system.cpu.icache.ReadReq_avg_miss_latency::.cpu.inst 77080.368760                       # average ReadReq miss latency
system.cpu.icache.ReadReq_avg_miss_latency::total 77080.368760                       # average ReadReq miss latency
system.cpu.icache.ReadReq_mshr_hits::.cpu.inst          135                       # number of ReadReq MSHR hits
system.cpu.icache.ReadReq_mshr_hits::total          135                       # number of ReadReq MSHR hits
system.cpu.icache.ReadReq_mshr_misses::.cpu.inst          486                       # number of ReadReq MSHR misses
system.cpu.icache.ReadReq_mshr_misses::total          486                       # number of ReadReq MSHR misses
system.cpu.icache.ReadReq_mshr_miss_latency::.cpu.inst     39015794                       # number of ReadReq MSHR miss cycles
system.cpu.icache.ReadReq_mshr_miss_latency::total     39015794                       # number of ReadReq MSHR miss cycles
system.cpu.icache.ReadReq_mshr_miss_rate::.cpu.inst     0.003713                       # mshr miss rate for ReadReq accesses
system.cpu.icache.ReadReq_mshr_miss_rate::total     0.003713                       # mshr miss rate for ReadReq accesses
system.cpu.icache.ReadReq_avg_mshr_miss_latency::.cpu.inst 80279.411523                       # average ReadReq mshr miss latency
system.cpu.icache.ReadReq_avg_mshr_miss_latency::total 80279.411523                       # average ReadReq mshr miss latency
system.cpu.icache.power_state.pwrStateResidencyTicks::UNDEFINED  11983563410                       # Cumulative time (in ticks) in various power states
system.cpu.icache.tags.tagsinuse           418.325761                       # Cycle average of tags in use
system.cpu.icache.tags.total_refs              130756                       # Total number of references to valid blocks.
system.cpu.icache.tags.sampled_refs               485                       # Sample count of references to valid blocks.
system.cpu.icache.tags.avg_refs            269.600000                       # Average number of references to valid blocks.
system.cpu.icache.tags.warmup_cycle             86905                       # Cycle when the warmup percentage was hit.
system.cpu.icache.tags.occ_blocks::.cpu.inst   418.325761                       # Average occupied blocks per requestor
system.cpu.icache.tags.occ_percent::.cpu.inst     0.408521                       # Average percentage of cache occupancy
system.cpu.icache.tags.occ_percent::total     0.408521                       # Average percentage of cache occupancy
system.cpu.icache.tags.occ_task_id_blocks::1024          461                       # Occupied blocks per task id
system.cpu.icache.tags.age_task_id_blocks_1024::0           44                       # Occupied blocks per task id
system.cpu.icache.tags.age_task_id_blocks_1024::2            1                       # Occupied blocks per task id
system.cpu.icache.tags.age_task_id_blocks_1024::4          416                       # Occupied blocks per task id
system.cpu.icache.tags.occ_task_id_percent::1024     0.450195                       # Percentage of cache occupancy per task id
system.cpu.icache.tags.tag_accesses            262269                       # Number of tag accesses
system.cpu.icache.tags.data_accesses           262269                       # Number of data accesses
system.cpu.icache.tags.power_state.pwrStateResidencyTicks::UNDEFINED  11983563410                       # Cumulative time (in ticks) in various power states
system.cpu.interrupts.clk_domain.clock           7280                       # Clock period in ticks
system.cpu.itb.rdAccesses                           0                       # TLB accesses on read requests
system.cpu.itb.wrAccesses                      131043                       # TLB accesses on write requests
system.cpu.itb.rdMisses                             0                       # TLB misses on read requests
system.cpu.itb.wrMisses                           196                       # TLB misses on write requests
system.cpu.itb.walker.power_state.pwrStateResidencyTicks::UNDEFINED  11983563410                       # Cumulative time (in ticks) in various power states
system.cpu.itb_walker_cache.blocked_cycles::no_mshrs            0                       # number of cycles access was blocked
system.cpu.itb_walker_cache.blocked_cycles::no_targets            0                       # number of cycles access was blocked
system.cpu.itb_walker_cache.blocked::no_mshrs            0                       # number of cycles access was blocked
system.cpu.itb_walker_cache.blocked::no_targets            0                       # number of cycles access was blocked
system.cpu.itb_walker_cache.avg_blocked_cycles::no_mshrs          nan                       # average number of cycles each access was blocked
system.cpu.itb_walker_cache.avg_blocked_cycles::no_targets          nan                       # average number of cycles each access was blocked
system.cpu.itb_walker_cache.replacements            0                       # number of replacements
system.cpu.itb_walker_cache.power_state.pwrStateResidencyTicks::UNDEFINED  11983563410                       # Cumulative time (in ticks) in various power states
system.cpu.itb_walker_cache.tags.tagsinuse            0                       # Cycle average of tags in use
system.cpu.itb_walker_cache.tags.total_refs            0                       # Total number of references to valid blocks.
system.cpu.itb_walker_cache.tags.sampled_refs            0                       # Sample count of references to valid blocks.
system.cpu.itb_walker_cache.tags.avg_refs          nan                       # Average number of references to valid blocks.
system.cpu.itb_walker_cache.tags.warmup_cycle            0                       # Cycle when the warmup percentage was hit.
system.cpu.itb_walker_cache.tags.tag_accesses            0                       # Number of tag accesses
system.cpu.itb_walker_cache.tags.data_accesses            0                       # Number of data accesses
system.cpu.itb_walker_cache.tags.power_state.pwrStateResidencyTicks::UNDEFINED  11983563410                       # Cumulative time (in ticks) in various power states
system.cpu.lsq0.forwLoads                         194                       # Number of loads that had data forwarded from stores
system.cpu.lsq0.squashedLoads                    1863                       # Number of loads squashed
system.cpu.lsq0.ignoredResponses                    1                       # Number of memory responses ignored because the instruction is squashed
system.cpu.lsq0.memOrderViolation                  11                       # Number of memory ordering violations
system.cpu.lsq0.squashedStores                   8051                       # Number of stores squashed
system.cpu.lsq0.rescheduledLoads                    0                       # Number of loads that were rescheduled
system.cpu.lsq0.blockedByCache                     16                       # Number of times an access to memory failed due to the cache being blocked
system.cpu.power_state.pwrStateResidencyTicks::ON  11983563410                       # Cumulative time (in ticks) in various power states
system.cpu.rename.squashCycles                   1237                       # Number of cycles rename is squashing
system.cpu.rename.idleCycles                  1172959                       # Number of cycles rename is idle
system.cpu.rename.blockCycles                 6726706                       # Number of cycles rename is blocking
system.cpu.rename.serializeStallCycles             34                       # count of cycles rename stalledfor serializing inst
system.cpu.rename.runCycles                   1765499                       # Number of cycles rename is running
system.cpu.rename.unblockCycles              16629695                       # Number of cycles rename is unblocking
system.cpu.rename.renamedInsts               17865541                       # Number of instructions processed by rename
system.cpu.rename.ROBFullEvents                   940                       # Number of times rename has blocked due to ROB full
system.cpu.rename.IQFullEvents                  46938                       # Number of times rename has blocked due to IQ full
system.cpu.rename.LQFullEvents                      1                       # Number of times rename has blocked due to LQ full
system.cpu.rename.SQFullEvents               16371750                       # Number of times rename has blocked due to SQ full
system.cpu.rename.renamedOperands            22474302                       # Number of destination operands rename has renamed
system.cpu.rename.lookups                    45387598                       # Number of register rename lookups that rename has made
system.cpu.rename.intLookups                 22758036                       # Number of integer rename lookups
system.cpu.rename.fpLookups                   4376754                       # Number of floating rename lookups
system.cpu.rename.committedMaps              22385329                       # Number of HB maps that are committed
system.cpu.rename.undoneMaps                    88967                       # Number of HB maps that are undone due to squashing
system.cpu.rename.serializing                       3                       # count of serializing insts renamed
system.cpu.rename.tempSerializing                   3                       # count of temporary serializing insts renamed
system.cpu.rename.skidInsts                   8422737                       # count of insts added to the skid buffer
system.cpu.rob.reads                         43788952                       # The number of ROB reads
system.cpu.rob.writes                        35732178                       # The number of ROB writes
system.cpu.thread_0.numInsts                  9995921                       # Number of Instructions committed
system.cpu.thread_0.numOps                   17794161                       # Number of Ops committed
system.cpu.thread_0.numMemRefs                      0                       # Number of Memory References
system.cpu_clk_domain.clock                       455                       # Clock period in ticks
system.cpu_voltage_domain.voltage                   1                       # Voltage in Volts
system.l2.demand_hits::.cpu.inst                    4                       # number of demand (read+write) hits
system.l2.demand_hits::.cpu.data               761482                       # number of demand (read+write) hits
system.l2.demand_hits::total                   761486                       # number of demand (read+write) hits
system.l2.overall_hits::.cpu.inst                   4                       # number of overall hits
system.l2.overall_hits::.cpu.data              761482                       # number of overall hits
system.l2.overall_hits::total                  761486                       # number of overall hits
system.l2.demand_misses::.cpu.inst                482                       # number of demand (read+write) misses
system.l2.demand_misses::.cpu.data              16987                       # number of demand (read+write) misses
system.l2.demand_misses::total                  17469                       # number of demand (read+write) misses
system.l2.overall_misses::.cpu.inst               482                       # number of overall misses
system.l2.overall_misses::.cpu.data             16987                       # number of overall misses
system.l2.overall_misses::total                 17469                       # number of overall misses
system.l2.demand_miss_latency::.cpu.inst     38310545                       # number of demand (read+write) miss cycles
system.l2.demand_miss_latency::.cpu.data   1248425815                       # number of demand (read+write) miss cycles
system.l2.demand_miss_latency::total       1286736360                       # number of demand (read+write) miss cycles
system.l2.overall_miss_latency::.cpu.inst     38310545                       # number of overall miss cycles
system.l2.overall_miss_latency::.cpu.data   1248425815                       # number of overall miss cycles
system.l2.overall_miss_latency::total      1286736360                       # number of overall miss cycles
system.l2.demand_accesses::.cpu.inst              486                       # number of demand (read+write) accesses
system.l2.demand_accesses::.cpu.data           778469                       # number of demand (read+write) accesses
system.l2.demand_accesses::total               778955                       # number of demand (read+write) accesses
system.l2.overall_accesses::.cpu.inst             486                       # number of overall (read+write) accesses
system.l2.overall_accesses::.cpu.data          778469                       # number of overall (read+write) accesses
system.l2.overall_accesses::total              778955                       # number of overall (read+write) accesses
system.l2.demand_miss_rate::.cpu.inst        0.991770                       # miss rate for demand accesses
system.l2.demand_miss_rate::.cpu.data        0.021821                       # miss rate for demand accesses
system.l2.demand_miss_rate::total            0.022426                       # miss rate for demand accesses
system.l2.overall_miss_rate::.cpu.inst       0.991770                       # miss rate for overall accesses
system.l2.overall_miss_rate::.cpu.data       0.021821                       # miss rate for overall accesses
system.l2.overall_miss_rate::total           0.022426                       # miss rate for overall accesses
system.l2.demand_avg_miss_latency::.cpu.inst 79482.458506                       # average overall miss latency
system.l2.demand_avg_miss_latency::.cpu.data 73493.013187                       # average overall miss latency
system.l2.demand_avg_miss_latency::total 73658.272368                       # average overall miss latency
system.l2.overall_avg_miss_latency::.cpu.inst 79482.458506                       # average overall miss latency
system.l2.overall_avg_miss_latency::.cpu.data 73493.013187                       # average overall miss latency
system.l2.overall_avg_miss_latency::total 73658.272368                       # average overall miss latency
system.l2.blocked_cycles::no_mshrs                  0                       # number of cycles access was blocked
system.l2.blocked_cycles::no_targets                0                       # number of cycles access was blocked
[...]
system.mem_ctrls.dram.bw_total::.cpu.data     90721596                       # Total bandwidth to/from this memory (bytes/s)
system.mem_ctrls.dram.bw_total::total        99539007                       # Total bandwidth to/from this memory (bytes/s)
system.mem_ctrls.dram.readBursts                17431                       # Number of DRAM read bursts
system.mem_ctrls.dram.writeBursts                1142                       # Number of DRAM write bursts
system.mem_ctrls.dram.perBankRdBursts::0         1039                       # Per bank write bursts
system.mem_ctrls.dram.perBankRdBursts::1         1042                       # Per bank write bursts
system.mem_ctrls.dram.perBankRdBursts::2          979                       # Per bank write bursts
system.mem_ctrls.dram.perBankRdBursts::3          982                       # Per bank write bursts
system.mem_ctrls.dram.perBankRdBursts::4         1118                       # Per bank write bursts
system.mem_ctrls.dram.perBankRdBursts::5         1109                       # Per bank write bursts
system.mem_ctrls.dram.perBankRdBursts::6         1184                       # Per bank write bursts
system.mem_ctrls.dram.perBankRdBursts::7         1124                       # Per bank write bursts
system.mem_ctrls.dram.perBankRdBursts::8         1139                       # Per bank write bursts
system.mem_ctrls.dram.perBankRdBursts::9         1105                       # Per bank write bursts
system.mem_ctrls.dram.perBankRdBursts::10         1110                       # Per bank write bursts
system.mem_ctrls.dram.perBankRdBursts::11         1132                       # Per bank write bursts
system.mem_ctrls.dram.perBankRdBursts::12         1157                       # Per bank write bursts
system.mem_ctrls.dram.perBankRdBursts::13         1118                       # Per bank write bursts
system.mem_ctrls.dram.perBankRdBursts::14         1034                       # Per bank write bursts
system.mem_ctrls.dram.perBankRdBursts::15         1059                       # Per bank write bursts
system.mem_ctrls.dram.perBankWrBursts::0           54                       # Per bank write bursts
system.mem_ctrls.dram.perBankWrBursts::1           55                       # Per bank write bursts
system.mem_ctrls.dram.perBankWrBursts::2           69                       # Per bank write bursts
system.mem_ctrls.dram.perBankWrBursts::3           50                       # Per bank write bursts
system.mem_ctrls.dram.perBankWrBursts::4           87                       # Per bank write bursts
system.mem_ctrls.dram.perBankWrBursts::5           82                       # Per bank write bursts
system.mem_ctrls.dram.perBankWrBursts::6           84                       # Per bank write bursts
system.mem_ctrls.dram.perBankWrBursts::7           74                       # Per bank write bursts
system.mem_ctrls.dram.perBankWrBursts::8           87                       # Per bank write bursts
system.mem_ctrls.dram.perBankWrBursts::9           69                       # Per bank write bursts
system.mem_ctrls.dram.perBankWrBursts::10           79                       # Per bank write bursts
system.mem_ctrls.dram.perBankWrBursts::11           70                       # Per bank write bursts
system.mem_ctrls.dram.perBankWrBursts::12           83                       # Per bank write bursts
system.mem_ctrls.dram.perBankWrBursts::13           79                       # Per bank write bursts
system.mem_ctrls.dram.perBankWrBursts::14           57                       # Per bank write bursts
system.mem_ctrls.dram.perBankWrBursts::15           63                       # Per bank write bursts
system.mem_ctrls.dram.totQLat                90645770                       # Total ticks spent queuing
system.mem_ctrls.dram.totBusLat              87155000                       # Total ticks spent in databus transfers
system.mem_ctrls.dram.totMemAccLat          417477020                       # Total ticks spent from burst creation until serviced by the DRAM
system.mem_ctrls.dram.avgQLat                 5200.26                       # Average queueing delay per DRAM burst
system.mem_ctrls.dram.avgBusLat               5000.00                       # Average bus latency per DRAM burst
system.mem_ctrls.dram.avgMemAccLat           23950.26                       # Average memory access latency per DRAM burst
system.mem_ctrls.dram.readRowHits               15902                       # Number of row buffer hits during reads
system.mem_ctrls.dram.writeRowHits                638                       # Number of row buffer hits during writes
system.mem_ctrls.dram.readRowHitRate            91.23                       # Row buffer hit rate for reads
system.mem_ctrls.dram.writeRowHitRate           55.87                       # Row buffer hit rate for writes
system.mem_ctrls.dram.bytesPerActivate::samples         2030                       # Bytes accessed per row activation
system.mem_ctrls.dram.bytesPerActivate::mean   585.395074                       # Bytes accessed per row activation
system.mem_ctrls.dram.bytesPerActivate::gmean   375.843731                       # Bytes accessed per row activation
system.mem_ctrls.dram.bytesPerActivate::stdev   412.464342                       # Bytes accessed per row activation
system.mem_ctrls.dram.bytesPerActivate::0-127          378     18.62%     18.62% # Bytes accessed per row activation
system.mem_ctrls.dram.bytesPerActivate::128-255          314     15.47%     34.09% # Bytes accessed per row activation
system.mem_ctrls.dram.bytesPerActivate::256-383          151      7.44%     41.53% # Bytes accessed per row activation
system.mem_ctrls.dram.bytesPerActivate::384-511           88      4.33%     45.86% # Bytes accessed per row activation
system.mem_ctrls.dram.bytesPerActivate::512-639           72      3.55%     49.41% # Bytes accessed per row activation
system.mem_ctrls.dram.bytesPerActivate::640-767          117      5.76%     55.17% # Bytes accessed per row activation
system.mem_ctrls.dram.bytesPerActivate::768-895           45      2.22%     57.39% # Bytes accessed per row activation
system.mem_ctrls.dram.bytesPerActivate::896-1023           47      2.32%     59.70% # Bytes accessed per row activation
system.mem_ctrls.dram.bytesPerActivate::1024-1151          818     40.30%    100.00% # Bytes accessed per row activation
system.mem_ctrls.dram.bytesPerActivate::total         2030                       # Bytes accessed per row activation
system.mem_ctrls.dram.bytesRead               1115584                       # Total number of bytes read from DRAM
system.mem_ctrls.dram.bytesWritten              73088                       # Total number of bytes written to DRAM
system.mem_ctrls.dram.avgRdBW               93.092844                       # Average DRAM read bandwidth in MiBytes/s
system.mem_ctrls.dram.avgWrBW                6.099021                       # Average DRAM write bandwidth in MiBytes/s
system.mem_ctrls.dram.peakBW                 12800.00                       # Theoretical peak bandwidth in MiByte/s
system.mem_ctrls.dram.busUtil                    0.77                       # Data bus utilization in percentage
system.mem_ctrls.dram.busUtilRead                0.73                       # Data bus utilization in percentage for reads
system.mem_ctrls.dram.busUtilWrite               0.05                       # Data bus utilization in percentage for writes
system.mem_ctrls.dram.pageHitRate               89.05                       # Row buffer hit rate, read and write combined
system.mem_ctrls.dram.power_state.pwrStateResidencyTicks::UNDEFINED  11983563410                       # Cumulative time (in ticks) in various power states
system.mem_ctrls.dram.rank0.actEnergy         7254240                       # Energy for activate commands per rank (pJ)
system.mem_ctrls.dram.rank0.preEnergy         3851925                       # Energy for precharge commands per rank (pJ)
system.mem_ctrls.dram.rank0.readEnergy       61239780                       # Energy for read commands per rank (pJ)
system.mem_ctrls.dram.rank0.writeEnergy       2897100                       # Energy for write commands per rank (pJ)
system.mem_ctrls.dram.rank0.refreshEnergy 945930960.000000                       # Energy for refresh commands per rank (pJ)
system.mem_ctrls.dram.rank0.actBackEnergy    690472920                       # Energy for active background per rank (pJ)
system.mem_ctrls.dram.rank0.preBackEnergy   4020237600                       # Energy for precharge background per rank (pJ)
system.mem_ctrls.dram.rank0.actPowerDownEnergy            0                       # Energy for active power-down per rank (pJ)
system.mem_ctrls.dram.rank0.prePowerDownEnergy            0                       # Energy for precharge power-down per rank (pJ)
system.mem_ctrls.dram.rank0.selfRefreshEnergy            0                       # Energy for self refresh per rank (pJ)
system.mem_ctrls.dram.rank0.totalEnergy    5731884525                       # Total energy per rank (pJ)
system.mem_ctrls.dram.rank0.averagePower   478.312196                       # Core power per rank (mW)
system.mem_ctrls.dram.rank0.totalIdleTime            0                       # Total Idle time Per DRAM Rank
system.mem_ctrls.dram.rank0.pwrStateTime::IDLE  10441832205                       # Time in different power states
system.mem_ctrls.dram.rank0.pwrStateTime::REF    400140000                       # Time in different power states
system.mem_ctrls.dram.rank0.pwrStateTime::SREF            0                       # Time in different power states
system.mem_ctrls.dram.rank0.pwrStateTime::PRE_PDN            0                       # Time in different power states
system.mem_ctrls.dram.rank0.pwrStateTime::ACT   1141591205                       # Time in different power states
system.mem_ctrls.dram.rank0.pwrStateTime::ACT_PDN            0                       # Time in different power states
system.mem_ctrls.dram.rank1.actEnergy         7261380                       # Energy for activate commands per rank (pJ)
system.mem_ctrls.dram.rank1.preEnergy         3851925                       # Energy for precharge commands per rank (pJ)
system.mem_ctrls.dram.rank1.readEnergy       63217560                       # Energy for read commands per rank (pJ)
system.mem_ctrls.dram.rank1.writeEnergy       3064140                       # Energy for write commands per rank (pJ)
system.mem_ctrls.dram.rank1.refreshEnergy 945930960.000000                       # Energy for refresh commands per rank (pJ)
system.mem_ctrls.dram.rank1.actBackEnergy    709802190                       # Energy for active background per rank (pJ)
system.mem_ctrls.dram.rank1.preBackEnergy   4003960320                       # Energy for precharge background per rank (pJ)
system.mem_ctrls.dram.rank1.actPowerDownEnergy            0                       # Energy for active power-down per rank (pJ)
system.mem_ctrls.dram.rank1.prePowerDownEnergy            0                       # Energy for precharge power-down per rank (pJ)
system.mem_ctrls.dram.rank1.selfRefreshEnergy            0                       # Energy for self refresh per rank (pJ)
system.mem_ctrls.dram.rank1.totalEnergy    5737088475                       # Total energy per rank (pJ)
system.mem_ctrls.dram.rank1.averagePower   478.746453                       # Core power per rank (mW)
system.mem_ctrls.dram.rank1.totalIdleTime            0                       # Total Idle time Per DRAM Rank
system.mem_ctrls.dram.rank1.pwrStateTime::IDLE  10399091465                       # Time in different power states
system.mem_ctrls.dram.rank1.pwrStateTime::REF    400140000                       # Time in different power states
system.mem_ctrls.dram.rank1.pwrStateTime::SREF            0                       # Time in different power states
system.mem_ctrls.dram.rank1.pwrStateTime::PRE_PDN            0                       # Time in different power states
system.mem_ctrls.dram.rank1.pwrStateTime::ACT   1184331945                       # Time in different power states
system.mem_ctrls.dram.rank1.pwrStateTime::ACT_PDN            0                       # Time in different power states
system.mem_ctrls.power_state.pwrStateResidencyTicks::UNDEFINED  11983563410                       # Cumulative time (in ticks) in various power states
system.membus.trans_dist::ReadResp                611                       # Transaction distribution
system.membus.trans_dist::WritebackDirty         1170                       # Transaction distribution
system.membus.trans_dist::CleanEvict               20                       # Transaction distribution
system.membus.trans_dist::ReadExReq             16857                       # Transaction distribution
system.membus.trans_dist::ReadExResp            16857                       # Transaction distribution
system.membus.trans_dist::ReadSharedReq           611                       # Transaction distribution
system.membus.pkt_count_system.l2.mem_side_port::system.mem_ctrls.port        36126                       # Packet count per connected requestor and responder (bytes)
system.membus.pkt_count_system.l2.mem_side_port::total        36126                       # Packet count per connected requestor and responder (bytes)
system.membus.pkt_count::total                  36126                       # Packet count per connected requestor and responder (bytes)
system.membus.pkt_size_system.l2.mem_side_port::system.mem_ctrls.port      1192832                       # Cumulative packet size per connected requestor and responder (bytes)
system.membus.pkt_size_system.l2.mem_side_port::total      1192832                       # Cumulative packet size per connected requestor and responder (bytes)
system.membus.pkt_size::total                 1192832                       # Cumulative packet size per connected requestor and responder (bytes)
system.membus.snoops                                0                       # Total snoops (count)
system.membus.snoopTraffic                          0                       # Total snoop traffic (bytes)
system.membus.snoop_fanout::samples             17468                       # Request fanout histogram
system.membus.snoop_fanout::mean                    0                       # Request fanout histogram
system.membus.snoop_fanout::stdev                   0                       # Request fanout histogram
system.membus.snoop_fanout::underflows              0      0.00%      0.00% # Request fanout histogram
system.membus.snoop_fanout::0                   17468    100.00%    100.00% # Request fanout histogram
system.membus.snoop_fanout::1                       0      0.00%    100.00% # Request fanout histogram
system.membus.snoop_fanout::overflows               0      0.00%    100.00% # Request fanout histogram
system.membus.snoop_fanout::min_value               0                       # Request fanout histogram
system.membus.snoop_fanout::max_value               0                       # Request fanout histogram
system.membus.snoop_fanout::total               17468                       # Request fanout histogram
system.membus.power_state.pwrStateResidencyTicks::UNDEFINED  11983563410                       # Cumulative time (in ticks) in various power states
system.membus.reqLayer2.occupancy            35072355                       # Layer occupancy (ticks)
system.membus.reqLayer2.utilization               0.3                       # Layer utilization (%)
system.membus.respLayer1.occupancy           92093190                       # Layer occupancy (ticks)
system.membus.respLayer1.utilization              0.8                       # Layer utilization (%)
system.tol2bus.trans_dist::ReadResp             16392                       # Transaction distribution
system.tol2bus.trans_dist::WritebackDirty       778536                       # Transaction distribution
system.tol2bus.trans_dist::WritebackClean           24                       # Transaction distribution
system.tol2bus.trans_dist::CleanEvict             198                       # Transaction distribution
system.tol2bus.trans_dist::ReadExReq           762562                       # Transaction distribution
system.tol2bus.trans_dist::ReadExResp          762562                       # Transaction distribution
system.tol2bus.trans_dist::ReadCleanReq           486                       # Transaction distribution
system.tol2bus.trans_dist::ReadSharedReq        15907                       # Transaction distribution
system.tol2bus.pkt_count_system.cpu.icache.mem_side_port::system.l2.cpu_side_port          995                       # Packet count per connected requestor and responder (bytes)
system.tol2bus.pkt_count_system.cpu.dcache.mem_side_port::system.l2.cpu_side_port      2334383                       # Packet count per connected requestor and responder (bytes)
system.tol2bus.pkt_count::total               2335378                       # Packet count per connected requestor and responder (bytes)
system.tol2bus.pkt_size_system.cpu.icache.mem_side_port::system.l2.cpu_side_port        32576                       # Cumulative packet size per connected requestor and responder (bytes)
system.tol2bus.pkt_size_system.cpu.dcache.mem_side_port::system.l2.cpu_side_port     99573440                       # Cumulative packet size per connected requestor and responder (bytes)
system.tol2bus.pkt_size::total               99606016                       # Cumulative packet size per connected requestor and responder (bytes)
system.tol2bus.snoops                            1289                       # Total snoops (count)
system.tol2bus.snoopTraffic                     74880                       # Total snoop traffic (bytes)
system.tol2bus.snoop_fanout::samples           780244                       # Request fanout histogram
system.tol2bus.snoop_fanout::mean            0.000127                       # Request fanout histogram
system.tol2bus.snoop_fanout::stdev           0.011264                       # Request fanout histogram
system.tol2bus.snoop_fanout::underflows             0      0.00%      0.00% # Request fanout histogram
system.tol2bus.snoop_fanout::0                 780145     99.99%     99.99% # Request fanout histogram
system.tol2bus.snoop_fanout::1                     99      0.01%    100.00% # Request fanout histogram
system.tol2bus.snoop_fanout::2                      0      0.00%    100.00% # Request fanout histogram
system.tol2bus.snoop_fanout::3                      0      0.00%    100.00% # Request fanout histogram
system.tol2bus.snoop_fanout::4                      0      0.00%    100.00% # Request fanout histogram
system.tol2bus.snoop_fanout::overflows              0      0.00%    100.00% # Request fanout histogram
system.tol2bus.snoop_fanout::min_value              0                       # Request fanout histogram
system.tol2bus.snoop_fanout::max_value              1                       # Request fanout histogram
system.tol2bus.snoop_fanout::total             780244                       # Request fanout histogram
system.tol2bus.power_state.pwrStateResidencyTicks::UNDEFINED  11983563410                       # Cumulative time (in ticks) in various power states
system.tol2bus.reqLayer0.occupancy         1415597820                       # Layer occupancy (ticks)
system.tol2bus.reqLayer0.utilization             11.8                       # Layer utilization (%)
system.tol2bus.respLayer0.occupancy            662025                       # Layer occupancy (ticks)
system.tol2bus.respLayer0.utilization             0.0                       # Layer utilization (%)
system.tol2bus.respLayer1.occupancy        1062610185                       # Layer occupancy (ticks)
system.tol2bus.respLayer1.utilization             8.9                       # Layer utilization (%)
system.voltage_domain.voltage                       1                       # Voltage in Volts

---------- End Simulation Statistics   ----------
