
---------- Begin Simulation Statistics ----------
final_tick                                13660583300                       # Number of ticks from beginning of simulation (restored from checkpoints and never reset)
host_inst_rate                                 111575                       # Simulator instruction rate (inst/s)
host_mem_usage                                 661004                       # Number of bytes of host memory used
host_op_rate                                   222422                       # Simulator op (including micro ops) rate (op/s)
host_seconds                                   101.19                       # Real time elapsed on the host
host_tick_rate                              134995067                       # Simulator tick rate (ticks/s)
sim_freq                                 1000000000000                       # Frequency of simulated ticks
sim_insts                                    11290577                       # Number of instructions simulated
sim_ops                                      22507585                       # Number of ops (including micro ops) simulated
sim_seconds                                  0.013661                       # Number of seconds simulated
sim_ticks                                 13660583300                       # Number of ticks simulated
system.cpu.cc_regfile_reads                   8126604                       # number of cc regfile reads
system.cpu.cc_regfile_writes                  6524056                       # number of cc regfile writes
system.cpu.committedInsts                    11290577                       # Number of Instructions Simulated
system.cpu.committedOps                      22507585                       # Number of Ops (including micro ops) Simulated
system.cpu.cpi                               2.659143                       # CPI: Cycles Per Instruction
system.cpu.cpi_total                         2.659143                       # CPI: Total CPI of All Threads
system.cpu.fp_regfile_reads                   9617506                       # number of floating regfile reads
system.cpu.fp_regfile_writes                  9568337                       # number of floating regfile writes
system.cpu.idleCycles                           38993                       # Total number of cycles that the CPU has spent unscheduled due to idling
system.cpu.iew.branchMispredicts                29194                       # Number of branch mispredicts detected at execute
system.cpu.iew.exec_branches                  1625548                       # Number of branches executed
system.cpu.iew.exec_nop                             0                       # number of nop insts executed
system.cpu.iew.exec_rate                     1.015768                       # Inst execution rate
system.cpu.iew.exec_refs                     12674984                       # number of memory reference insts executed
system.cpu.iew.exec_stores                      26754                       # Number of stores executed
system.cpu.iew.exec_swp                             0                       # number of swp insts executed
system.cpu.iew.iewBlockCycles                 8703168                       # Number of cycles IEW is blocking
system.cpu.iew.iewDispLoadInsts               4868314                       # Number of dispatched load instructions
system.cpu.iew.iewDispNonSpecInsts                  1                       # Number of dispatched non-speculative instructions
system.cpu.iew.iewDispSquashedInsts              4524                       # Number of squashed instructions skipped by dispatch
system.cpu.iew.iewDispStoreInsts                27436                       # Number of dispatched store instructions
system.cpu.iew.iewDispatchedInsts            22862224                       # Number of instructions dispatched to IQ
system.cpu.iew.iewExecLoadInsts              12648230                       # Number of load instructions executed
system.cpu.iew.iewExecSquashedInsts             55566                       # Number of squashed instructions skipped in execute
system.cpu.iew.iewExecutedInsts              30496676                       # Number of executed instructions
system.cpu.iew.iewIQFullEvents                  54892                       # Number of times the IQ has become full, causing a stall
system.cpu.iew.iewIdleCycles                        0                       # Number of cycles IEW is idle
system.cpu.iew.iewLSQFullEvents               4445869                       # Number of times the LSQ has become full, causing a stall
system.cpu.iew.iewSquashCycles                  25417                       # Number of cycles IEW is squashing
system.cpu.iew.iewUnblockCycles               4587178                       # Number of cycles IEW is unblocking
system.cpu.iew.memOrderViolationEvents             16                       # Number of memory order violations
system.cpu.iew.predictedNotTakenIncorrect         1459                       # Number of branches that were predicted not taken incorrectly
system.cpu.iew.predictedTakenIncorrect          27735                       # Number of branches that were predicted taken incorrectly
system.cpu.iew.wb_consumers                  23341287                       # num instructions consuming a value
system.cpu.iew.wb_count                      22635307                       # cumulative count of insts written-back
system.cpu.iew.wb_fanout                     0.727113                       # average fanout of values written-back
system.cpu.iew.wb_producers                  16971755                       # num instructions producing a value
system.cpu.iew.wb_rate                       0.753926                       # insts written-back per cycle
system.cpu.iew.wb_sent                       22637278                       # cumulative count of insts sent to commit
system.cpu.int_regfile_reads                 36732396                       # number of integer regfile reads
system.cpu.int_regfile_writes                11391172                       # number of integer regfile writes
system.cpu.ipc                               0.376061                       # IPC: Instructions Per Cycle
system.cpu.ipc_total                         0.376061                       # IPC: Total IPC of All Threads
system.cpu.iq.FU_type_0::No_OpClass               793      0.00%      0.00% # Type of FU issued
system.cpu.iq.FU_type_0::IntAlu              11495711     37.63%     37.63% # Type of FU issued
system.cpu.iq.FU_type_0::IntMult                    5      0.00%     37.63% # Type of FU issued
system.cpu.iq.FU_type_0::IntDiv                    22      0.00%     37.63% # Type of FU issued
system.cpu.iq.FU_type_0::FloatAdd             3203793     10.49%     48.12% # Type of FU issued
system.cpu.iq.FU_type_0::FloatCmp                   0      0.00%     48.12% # Type of FU issued
system.cpu.iq.FU_type_0::FloatCvt                   0      0.00%     48.12% # Type of FU issued
system.cpu.iq.FU_type_0::FloatMult                  0      0.00%     48.12% # Type of FU issued
system.cpu.iq.FU_type_0::FloatMultAcc               0      0.00%     48.12% # Type of FU issued
system.cpu.iq.FU_type_0::FloatDiv                   0      0.00%     48.12% # Type of FU issued
system.cpu.iq.FU_type_0::FloatMisc                  0      0.00%     48.12% # Type of FU issued
system.cpu.iq.FU_type_0::FloatSqrt                  0      0.00%     48.12% # Type of FU issued
system.cpu.iq.FU_type_0::SimdAdd                    0      0.00%     48.12% # Type of FU issued
system.cpu.iq.FU_type_0::SimdAddAcc                 0      0.00%     48.12% # Type of FU issued
system.cpu.iq.FU_type_0::SimdAlu                  208      0.00%     48.12% # Type of FU issued
system.cpu.iq.FU_type_0::SimdCmp                    0      0.00%     48.12% # Type of FU issued
system.cpu.iq.FU_type_0::SimdCvt                   48      0.00%     48.12% # Type of FU issued
system.cpu.iq.FU_type_0::SimdMisc                 219      0.00%     48.12% # Type of FU issued
system.cpu.iq.FU_type_0::SimdMult                   0      0.00%     48.12% # Type of FU issued
system.cpu.iq.FU_type_0::SimdMultAcc                0      0.00%     48.12% # Type of FU issued
system.cpu.iq.FU_type_0::SimdShift                  0      0.00%     48.12% # Type of FU issued
system.cpu.iq.FU_type_0::SimdShiftAcc               0      0.00%     48.12% # Type of FU issued
system.cpu.iq.FU_type_0::SimdDiv                    0      0.00%     48.12% # Type of FU issued
system.cpu.iq.FU_type_0::SimdSqrt                   0      0.00%     48.12% # Type of FU issued
system.cpu.iq.FU_type_0::SimdFloatAdd         1594405      5.22%     53.34% # Type of FU issued
system.cpu.iq.FU_type_0::SimdFloatAlu               0      0.00%     53.34% # Type of FU issued
system.cpu.iq.FU_type_0::SimdFloatCmp               0      0.00%     53.34% # Type of FU issued
system.cpu.iq.FU_type_0::SimdFloatCvt               0      0.00%     53.34% # Type of FU issued
system.cpu.iq.FU_type_0::SimdFloatDiv               0      0.00%     53.34% # Type of FU issued
system.cpu.iq.FU_type_0::SimdFloatMisc              0      0.00%     53.34% # Type of FU issued
system.cpu.iq.FU_type_0::SimdFloatMult        1569832      5.14%     58.47% # Type of FU issued
system.cpu.iq.FU_type_0::SimdFloatMultAcc            0      0.00%     58.47% # Type of FU issued
system.cpu.iq.FU_type_0::SimdFloatSqrt              0      0.00%     58.47% # Type of FU issued
system.cpu.iq.FU_type_0::SimdReduceAdd              0      0.00%     58.47% # Type of FU issued
system.cpu.iq.FU_type_0::SimdReduceAlu              0      0.00%     58.47% # Type of FU issued
system.cpu.iq.FU_type_0::SimdReduceCmp              0      0.00%     58.47% # Type of FU issued
system.cpu.iq.FU_type_0::SimdFloatReduceAdd            0      0.00%     58.47% # Type of FU issued
system.cpu.iq.FU_type_0::SimdFloatReduceCmp            0      0.00%     58.47% # Type of FU issued
system.cpu.iq.FU_type_0::SimdAes                    0      0.00%     58.47% # Type of FU issued
system.cpu.iq.FU_type_0::SimdAesMix                 0      0.00%     58.47% # Type of FU issued
system.cpu.iq.FU_type_0::SimdSha1Hash               0      0.00%     58.47% # Type of FU issued
system.cpu.iq.FU_type_0::SimdSha1Hash2              0      0.00%     58.47% # Type of FU issued
system.cpu.iq.FU_type_0::SimdSha256Hash             0      0.00%     58.47% # Type of FU issued
system.cpu.iq.FU_type_0::SimdSha256Hash2            0      0.00%     58.47% # Type of FU issued
system.cpu.iq.FU_type_0::SimdShaSigma2              0      0.00%     58.47% # Type of FU issued
system.cpu.iq.FU_type_0::SimdShaSigma3              0      0.00%     58.47% # Type of FU issued
system.cpu.iq.FU_type_0::SimdPredAlu                0      0.00%     58.47% # Type of FU issued
system.cpu.iq.FU_type_0::MemRead              4529576     14.83%     73.30% # Type of FU issued
system.cpu.iq.FU_type_0::MemWrite                1728      0.01%     73.31% # Type of FU issued
system.cpu.iq.FU_type_0::FloatMemRead         8130790     26.61%     99.92% # Type of FU issued
system.cpu.iq.FU_type_0::FloatMemWrite          25112      0.08%    100.00% # Type of FU issued
system.cpu.iq.FU_type_0::IprAccess                  0      0.00%    100.00% # Type of FU issued
system.cpu.iq.FU_type_0::InstPrefetch               0      0.00%    100.00% # Type of FU issued
system.cpu.iq.FU_type_0::total               30552242                       # Type of FU issued
system.cpu.iq.fp_alu_accesses                16035560                       # Number of floating point alu accesses
system.cpu.iq.fp_inst_queue_reads            30620827                       # Number of floating instruction queue reads
system.cpu.iq.fp_inst_queue_wakeup_accesses      9592535                       # Number of floating instruction queue wakeup accesses
system.cpu.iq.fp_inst_queue_writes            9855777                       # Number of floating instruction queue writes
system.cpu.iq.fu_busy_cnt                     2926188                       # FU busy when requested
system.cpu.iq.fu_busy_rate                   0.095777                       # FU busy rate (busy events/executed inst)
system.cpu.iq.fu_full::No_OpClass                   0      0.00%      0.00% # attempts to use FU when none available
system.cpu.iq.fu_full::IntAlu                   98608      3.37%      3.37% # attempts to use FU when none available
system.cpu.iq.fu_full::IntMult                      0      0.00%      3.37% # attempts to use FU when none available
system.cpu.iq.fu_full::IntDiv                       0      0.00%      3.37% # attempts to use FU when none available
system.cpu.iq.fu_full::FloatAdd                     0      0.00%      3.37% # attempts to use FU when none available
system.cpu.iq.fu_full::FloatCmp                     0      0.00%      3.37% # attempts to use FU when none available
system.cpu.iq.fu_full::FloatCvt                     0      0.00%      3.37% # attempts to use FU when none available
system.cpu.iq.fu_full::FloatMult                    0      0.00%      3.37% # attempts to use FU when none available
system.cpu.iq.fu_full::FloatMultAcc                 0      0.00%      3.37% # attempts to use FU when none available
system.cpu.iq.fu_full::FloatDiv                     0      0.00%      3.37% # attempts to use FU when none available
system.cpu.iq.fu_full::FloatMisc                    0      0.00%      3.37% # attempts to use FU when none available
system.cpu.iq.fu_full::FloatSqrt                    0      0.00%      3.37% # attempts to use FU when none available
system.cpu.iq.fu_full::SimdAdd                      0      0.00%      3.37% # attempts to use FU when none available
system.cpu.iq.fu_full::SimdAddAcc                   0      0.00%      3.37% # attempts to use FU when none available
system.cpu.iq.fu_full::SimdAlu                     11      0.00%      3.37% # attempts to use FU when none available
system.cpu.iq.fu_full::SimdCmp                      0      0.00%      3.37% # attempts to use FU when none available
system.cpu.iq.fu_full::SimdCvt                      1      0.00%      3.37% # attempts to use FU when none available
system.cpu.iq.fu_full::SimdMisc                     2      0.00%      3.37% # attempts to use FU when none available
system.cpu.iq.fu_full::SimdMult                     0      0.00%      3.37% # attempts to use FU when none available
system.cpu.iq.fu_full::SimdMultAcc                  0      0.00%      3.37% # attempts to use FU when none available
system.cpu.iq.fu_full::SimdShift                    0      0.00%      3.37% # attempts to use FU when none available
system.cpu.iq.fu_full::SimdShiftAcc                 0      0.00%      3.37% # attempts to use FU when none available
system.cpu.iq.fu_full::SimdDiv                      0      0.00%      3.37% # attempts to use FU when none available
system.cpu.iq.fu_full::SimdSqrt                     0      0.00%      3.37% # attempts to use FU when none available
system.cpu.iq.fu_full::SimdFloatAdd                 0      0.00%      3.37% # attempts to use FU when none available
system.cpu.iq.fu_full::SimdFloatAlu                 0      0.00%      3.37% # attempts to use FU when none available
system.cpu.iq.fu_full::SimdFloatCmp                 0      0.00%      3.37% # attempts to use FU when none available
system.cpu.iq.fu_full::SimdFloatCvt                 0      0.00%      3.37% # attempts to use FU when none available
system.cpu.iq.fu_full::SimdFloatDiv                 0      0.00%      3.37% # attempts to use FU when none available
system.cpu.iq.fu_full::SimdFloatMisc                0      0.00%      3.37% # attempts to use FU when none available
system.cpu.iq.fu_full::SimdFloatMult            15195      0.52%      3.89% # attempts to use FU when none available
system.cpu.iq.fu_full::SimdFloatMultAcc             0      0.00%      3.89% # attempts to use FU when none available
system.cpu.iq.fu_full::SimdFloatSqrt                0      0.00%      3.89% # attempts to use FU when none available
system.cpu.iq.fu_full::SimdReduceAdd                0      0.00%      3.89% # attempts to use FU when none available
system.cpu.iq.fu_full::SimdReduceAlu                0      0.00%      3.89% # attempts to use FU when none available
system.cpu.iq.fu_full::SimdReduceCmp                0      0.00%      3.89% # attempts to use FU when none available
system.cpu.iq.fu_full::SimdFloatReduceAdd            0      0.00%      3.89% # attempts to use FU when none available
system.cpu.iq.fu_full::SimdFloatReduceCmp            0      0.00%      3.89% # attempts to use FU when none available
system.cpu.iq.fu_full::SimdAes                      0      0.00%      3.89% # attempts to use FU when none available
system.cpu.iq.fu_full::SimdAesMix                   0      0.00%      3.89% # attempts to use FU when none available
system.cpu.iq.fu_full::SimdSha1Hash                 0      0.00%      3.89% # attempts to use FU when none available
system.cpu.iq.fu_full::SimdSha1Hash2                0      0.00%      3.89% # attempts to use FU when none available
system.cpu.iq.fu_full::SimdSha256Hash               0      0.00%      3.89% # attempts to use FU when none available
system.cpu.iq.fu_full::SimdSha256Hash2              0      0.00%      3.89% # attempts to use FU when none available
system.cpu.iq.fu_full::SimdShaSigma2                0      0.00%      3.89% # attempts to use FU when none available
system.cpu.iq.fu_full::SimdShaSigma3                0      0.00%      3.89% # attempts to use FU when none available
system.cpu.iq.fu_full::SimdPredAlu                  0      0.00%      3.89% # attempts to use FU when none available
system.cpu.iq.fu_full::MemRead                1365863     46.68%     50.57% # attempts to use FU when none available
system.cpu.iq.fu_full::MemWrite                    21      0.00%     50.57% # attempts to use FU when none available
system.cpu.iq.fu_full::FloatMemRead           1446480     49.43%    100.00% # attempts to use FU when none available
system.cpu.iq.fu_full::FloatMemWrite                7      0.00%    100.00% # attempts to use FU when none available
system.cpu.iq.fu_full::IprAccess                    0      0.00%    100.00% # attempts to use FU when none available
system.cpu.iq.fu_full::InstPrefetch                 0      0.00%    100.00% # attempts to use FU when none available
system.cpu.iq.int_alu_accesses               17442077                       # Number of integer alu accesses
system.cpu.iq.int_inst_queue_reads           63424109                       # Number of integer instruction queue reads
system.cpu.iq.int_inst_queue_wakeup_accesses     13042772                       # Number of integer instruction queue wakeup accesses
system.cpu.iq.int_inst_queue_writes          13361095                       # Number of integer instruction queue writes
system.cpu.iq.iqInstsAdded                   22862221                       # Number of instructions added to the IQ (excludes non-spec)
system.cpu.iq.iqInstsIssued                  30552242                       # Number of instructions issued
system.cpu.iq.iqNonSpecInstsAdded                   3                       # Number of non-speculative instructions added to the IQ
system.cpu.iq.iqSquashedInstsExamined          354633                       # Number of squashed instructions iterated over during squash; mainly for profiling
system.cpu.iq.iqSquashedInstsIssued             29996                       # Number of squashed instructions issued
system.cpu.iq.iqSquashedNonSpecRemoved              3                       # Number of squashed non-spec instructions that were removed
system.cpu.iq.iqSquashedOperandsExamined       515396                       # Number of squashed operands that are examined and possibly removed from graph
system.cpu.iq.issued_per_cycle::samples      29984268                       # Number of insts issued each cycle
system.cpu.iq.issued_per_cycle::mean         1.018942                       # Number of insts issued each cycle
system.cpu.iq.issued_per_cycle::stdev        1.851360                       # Number of insts issued each cycle
system.cpu.iq.issued_per_cycle::underflows            0      0.00%      0.00% # Number of insts issued each cycle
system.cpu.iq.issued_per_cycle::0            20369984     67.94%     67.94% # Number of insts issued each cycle
system.cpu.iq.issued_per_cycle::1             3063933     10.22%     78.15% # Number of insts issued each cycle
system.cpu.iq.issued_per_cycle::2             1072418      3.58%     81.73% # Number of insts issued each cycle
system.cpu.iq.issued_per_cycle::3             1024129      3.42%     85.15% # Number of insts issued each cycle
system.cpu.iq.issued_per_cycle::4             1993590      6.65%     91.79% # Number of insts issued each cycle
system.cpu.iq.issued_per_cycle::5             1233457      4.11%     95.91% # Number of insts issued each cycle
system.cpu.iq.issued_per_cycle::6              677616      2.26%     98.17% # Number of insts issued each cycle
system.cpu.iq.issued_per_cycle::7              329383      1.10%     99.27% # Number of insts issued each cycle
system.cpu.iq.issued_per_cycle::8              219758      0.73%    100.00% # Number of insts issued each cycle
system.cpu.iq.issued_per_cycle::overflows            0      0.00%    100.00% # Number of insts issued each cycle
system.cpu.iq.issued_per_cycle::min_value            0                       # Number of insts issued each cycle
system.cpu.iq.issued_per_cycle::max_value            8                       # Number of insts issued each cycle
system.cpu.iq.issued_per_cycle::total        29984268                       # Number of insts issued each cycle
system.cpu.iq.rate                           1.017619                       # Inst issue rate
system.cpu.iq.vec_alu_accesses                      0                       # Number of vector alu accesses
system.cpu.iq.vec_inst_queue_reads                  0                       # Number of vector instruction queue reads
system.cpu.iq.vec_inst_queue_wakeup_accesses            0                       # Number of vector instruction queue wakeup accesses
system.cpu.iq.vec_inst_queue_writes                 0                       # Number of vector instruction queue writes
system.cpu.memDep0.conflictingLoads               966                       # Number of conflicting loads.
system.cpu.memDep0.conflictingStores              930                       # Number of conflicting stores.
system.cpu.memDep0.insertedLoads              4868314                       # Number of loads inserted to the mem dependence unit.
system.cpu.memDep0.insertedStores               27436                       # Number of stores inserted to the mem dependence unit.
system.cpu.misc_regfile_reads                15935964                       # number of misc regfile reads
system.cpu.numCycles                         30023261                       # number of cpu cycles simulated
system.cpu.numWorkItemsCompleted                    0                       # number of work items this cpu completed
system.cpu.numWorkItemsStarted                      0                       # number of work items this cpu started
system.cpu.timesIdled                             296                       # Number of times that the entire CPU went into an idle state and unscheduled itself
system.cpu.workload.numSyscalls                    10                       # Number of system calls
system.membus.snoop_filter.hit_multi_requests            0                       # Number of requests hitting in the snoop filter with multiple (>1) holders of the requested data.
system.membus.snoop_filter.hit_multi_snoops            0                       # Number of snoops hitting in the snoop filter with multiple (>1) holders of the requested data.
system.membus.snoop_filter.hit_single_requests       174552                       # Number of requests hitting in the snoop filter with a single holder of the requested data.
system.membus.snoop_filter.hit_single_snoops            0                       # Number of snoops hitting in the snoop filter with a single holder of the requested data.
system.membus.snoop_filter.tot_requests        382286                       # Total number of requests made to the snoop filter.
system.membus.snoop_filter.tot_snoops               0                       # Total number of snoops made to the snoop filter.
system.tol2bus.snoop_filter.hit_multi_requests            0                       # Number of requests hitting in the snoop filter with multiple (>1) holders of the requested data.
system.tol2bus.snoop_filter.hit_multi_snoops            0                       # Number of snoops hitting in the snoop filter with multiple (>1) holders of the requested data.
system.tol2bus.snoop_filter.hit_single_requests      1430045                       # Number of requests hitting in the snoop filter with a single holder of the requested data.
system.tol2bus.snoop_filter.hit_single_snoops         3103                       # Number of snoops hitting in the snoop filter with a single holder of the requested data.
system.tol2bus.snoop_filter.tot_requests      2861569                       # Total number of requests made to the snoop filter.
system.tol2bus.snoop_filter.tot_snoops           3103                       # Total number of snoops made to the snoop filter.
system.clk_domain.clock                          1000                       # Clock period in ticks
system.cpu.branchPred.lookups                 1684901                       # Number of BP lookups
system.cpu.branchPred.condPredicted           1683670                       # Number of conditional branches predicted
system.cpu.branchPred.condIncorrect             25448                       # Number of conditional branches incorrect
system.cpu.branchPred.BTBLookups              1657583                       # Number of BTB lookups
system.cpu.branchPred.BTBHits                 1656826                       # Number of BTB hits
system.cpu.branchPred.BTBHitPct             99.954331                       # BTB Hit Percentage
system.cpu.branchPred.RASUsed                     299                       # Number of times the RAS was used to get a target.
system.cpu.branchPred.RASIncorrect                  0                       # Number of incorrect RAS predictions.
system.cpu.branchPred.indirectLookups             285                       # Number of indirect predictor lookups.
system.cpu.branchPred.indirectHits                 19                       # Number of indirect target hits.
system.cpu.branchPred.indirectMisses              266                       # Number of indirect misses.
system.cpu.branchPred.indirectMispredicted           91                       # Number of mispredicted indirect branches.
system.cpu.commit.commitSquashedInsts          358724                       # The number of squashed insts skipped by commit
system.cpu.commit.branchMispredicts             25385                       # The number of times a branch was mispredicted
system.cpu.commit.numCommittedDist::samples     29926774                       # Number of insts commited each cycle
system.cpu.commit.numCommittedDist::mean     0.752089                       # Number of insts commited each cycle
system.cpu.commit.numCommittedDist::stdev     2.081621                       # Number of insts commited each cycle
system.cpu.commit.numCommittedDist::underflows            0      0.00%      0.00% # Number of insts commited each cycle
system.cpu.commit.numCommittedDist::0        25373710     84.79%     84.79% # Number of insts commited each cycle
system.cpu.commit.numCommittedDist::1          493766      1.65%     86.44% # Number of insts commited each cycle
system.cpu.commit.numCommittedDist::2          495019      1.65%     88.09% # Number of insts commited each cycle
system.cpu.commit.numCommittedDist::3         1364285      4.56%     92.65% # Number of insts commited each cycle
system.cpu.commit.numCommittedDist::4           15039      0.05%     92.70% # Number of insts commited each cycle
system.cpu.commit.numCommittedDist::5          135727      0.45%     93.15% # Number of insts commited each cycle
system.cpu.commit.numCommittedDist::6           46679      0.16%     93.31% # Number of insts commited each cycle
system.cpu.commit.numCommittedDist::7          108331      0.36%     93.67% # Number of insts commited each cycle
system.cpu.commit.numCommittedDist::8         1894218      6.33%    100.00% # Number of insts commited each cycle
system.cpu.commit.numCommittedDist::overflows            0      0.00%    100.00% # Number of insts commited each cycle
system.cpu.commit.numCommittedDist::min_value            0                       # Number of insts commited each cycle
system.cpu.commit.numCommittedDist::max_value            8                       # Number of insts commited each cycle
system.cpu.commit.numCommittedDist::total     29926774                       # Number of insts commited each cycle
system.cpu.commit.instsCommitted             11290577                       # Number of instructions committed
system.cpu.commit.opsCommitted               22507585                       # Number of ops (including micro ops) committed
system.cpu.commit.memRefs                     4810626                       # Number of memory references committed
system.cpu.commit.loads                       4784452                       # Number of loads committed
system.cpu.commit.amos                              0                       # Number of atomic instructions committed
system.cpu.commit.membars                           0                       # Number of memory barriers committed
system.cpu.commit.branches                    1620560                       # Number of branches committed
system.cpu.commit.vector                            0                       # Number of committed Vector instructions.
system.cpu.commit.floating                    9542479                       # Number of committed floating point instructions.
system.cpu.commit.integer                    16130166                       # Number of committed integer instructions.
system.cpu.commit.functionCalls                   143                       # Number of function calls committed.
system.cpu.commit.committedInstType_0::No_OpClass          279      0.00%      0.00% # Class of committed instruction
system.cpu.commit.committedInstType_0::IntAlu     11392610     50.62%     50.62% # Class of committed instruction
system.cpu.commit.committedInstType_0::IntMult            5      0.00%     50.62% # Class of committed instruction
system.cpu.commit.committedInstType_0::IntDiv           21      0.00%     50.62% # Class of committed instruction
system.cpu.commit.committedInstType_0::FloatAdd      3139623     13.95%     64.57% # Class of committed instruction
system.cpu.commit.committedInstType_0::FloatCmp            0      0.00%     64.57% # Class of committed instruction
system.cpu.commit.committedInstType_0::FloatCvt            0      0.00%     64.57% # Class of committed instruction
system.cpu.commit.committedInstType_0::FloatMult            0      0.00%     64.57% # Class of committed instruction
system.cpu.commit.committedInstType_0::FloatMultAcc            0      0.00%     64.57% # Class of committed instruction
system.cpu.commit.committedInstType_0::FloatDiv            0      0.00%     64.57% # Class of committed instruction
system.cpu.commit.committedInstType_0::FloatMisc            0      0.00%     64.57% # Class of committed instruction
system.cpu.commit.committedInstType_0::FloatSqrt            0      0.00%     64.57% # Class of committed instruction
system.cpu.commit.committedInstType_0::SimdAdd            0      0.00%     64.57% # Class of committed instruction
system.cpu.commit.committedInstType_0::SimdAddAcc            0      0.00%     64.57% # Class of committed instruction
system.cpu.commit.committedInstType_0::SimdAlu           96      0.00%     64.57% # Class of committed instruction
system.cpu.commit.committedInstType_0::SimdCmp            0      0.00%     64.57% # Class of committed instruction
system.cpu.commit.committedInstType_0::SimdCvt           46      0.00%     64.57% # Class of committed instruction
system.cpu.commit.committedInstType_0::SimdMisc          215      0.00%     64.57% # Class of committed instruction
system.cpu.commit.committedInstType_0::SimdMult            0      0.00%     64.57% # Class of committed instruction
system.cpu.commit.committedInstType_0::SimdMultAcc            0      0.00%     64.57% # Class of committed instruction
system.cpu.commit.committedInstType_0::SimdShift            0      0.00%     64.57% # Class of committed instruction
system.cpu.commit.committedInstType_0::SimdShiftAcc            0      0.00%     64.57% # Class of committed instruction
system.cpu.commit.committedInstType_0::SimdDiv            0      0.00%     64.57% # Class of committed instruction
system.cpu.commit.committedInstType_0::SimdSqrt            0      0.00%     64.57% # Class of committed instruction
system.cpu.commit.committedInstType_0::SimdFloatAdd      1594320      7.08%     71.65% # Class of committed instruction
system.cpu.commit.committedInstType_0::SimdFloatAlu            0      0.00%     71.65% # Class of committed instruction
system.cpu.commit.committedInstType_0::SimdFloatCmp            0      0.00%     71.65% # Class of committed instruction
system.cpu.commit.committedInstType_0::SimdFloatCvt            0      0.00%     71.65% # Class of committed instruction
system.cpu.commit.committedInstType_0::SimdFloatDiv            0      0.00%     71.65% # Class of committed instruction
system.cpu.commit.committedInstType_0::SimdFloatMisc            0      0.00%     71.65% # Class of committed instruction
system.cpu.commit.committedInstType_0::SimdFloatMult      1569744      6.97%     78.63% # Class of committed instruction
system.cpu.commit.committedInstType_0::SimdFloatMultAcc            0      0.00%     78.63% # Class of committed instruction
system.cpu.commit.committedInstType_0::SimdFloatSqrt            0      0.00%     78.63% # Class of committed instruction
system.cpu.commit.committedInstType_0::SimdReduceAdd            0      0.00%     78.63% # Class of committed instruction
system.cpu.commit.committedInstType_0::SimdReduceAlu            0      0.00%     78.63% # Class of committed instruction
system.cpu.commit.committedInstType_0::SimdReduceCmp            0      0.00%     78.63% # Class of committed instruction
system.cpu.commit.committedInstType_0::SimdFloatReduceAdd            0      0.00%     78.63% # Class of committed instruction
system.cpu.commit.committedInstType_0::SimdFloatReduceCmp            0      0.00%     78.63% # Class of committed instruction
system.cpu.commit.committedInstType_0::SimdAes            0      0.00%     78.63% # Class of committed instruction
system.cpu.commit.committedInstType_0::SimdAesMix            0      0.00%     78.63% # Class of committed instruction
system.cpu.commit.committedInstType_0::SimdSha1Hash            0      0.00%     78.63% # Class of committed instruction
system.cpu.commit.committedInstType_0::SimdSha1Hash2            0      0.00%     78.63% # Class of committed instruction
system.cpu.commit.committedInstType_0::SimdSha256Hash            0      0.00%     78.63% # Class of committed instruction
system.cpu.commit.committedInstType_0::SimdSha256Hash2            0      0.00%     78.63% # Class of committed instruction
system.cpu.commit.committedInstType_0::SimdShaSigma2            0      0.00%     78.63% # Class of committed instruction
system.cpu.commit.committedInstType_0::SimdShaSigma3            0      0.00%     78.63% # Class of committed instruction
system.cpu.commit.committedInstType_0::SimdPredAlu            0      0.00%     78.63% # Class of committed instruction
system.cpu.commit.committedInstType_0::MemRead      1620342      7.20%     85.83% # Class of committed instruction
system.cpu.commit.committedInstType_0::MemWrite         1140      0.01%     85.83% # Class of committed instruction
system.cpu.commit.committedInstType_0::FloatMemRead      3164110     14.06%     99.89% # Class of committed instruction
system.cpu.commit.committedInstType_0::FloatMemWrite        25034      0.11%    100.00% # Class of committed instruction
system.cpu.commit.committedInstType_0::IprAccess            0      0.00%    100.00% # Class of committed instruction
system.cpu.commit.committedInstType_0::InstPrefetch            0      0.00%    100.00% # Class of committed instruction
system.cpu.commit.committedInstType_0::total     22507585                       # Class of committed instruction
system.cpu.commit.commitEligibleSamples       1894218                       # number cycles where commit BW limit reached
system.cpu.dcache.demand_hits::.cpu.data      1586817                       # number of demand (read+write) hits
system.cpu.dcache.demand_hits::total          1586817                       # number of demand (read+write) hits
system.cpu.dcache.overall_hits::.cpu.data      1586817                       # number of overall hits
system.cpu.dcache.overall_hits::total         1586817                       # number of overall hits
system.cpu.dcache.demand_misses::.cpu.data      3337654                       # number of demand (read+write) misses
system.cpu.dcache.demand_misses::total        3337654                       # number of demand (read+write) misses
system.cpu.dcache.overall_misses::.cpu.data      3337654                       # number of overall misses
system.cpu.dcache.overall_misses::total       3337654                       # number of overall misses
system.cpu.dcache.demand_miss_latency::.cpu.data 179805056339                       # number of demand (read+write) miss cycles
system.cpu.dcache.demand_miss_latency::total 179805056339                       # number of demand (read+write) miss cycles
system.cpu.dcache.overall_miss_latency::.cpu.data 179805056339                       # number of overall miss cycles
system.cpu.dcache.overall_miss_latency::total 179805056339                       # number of overall miss cycles
system.cpu.dcache.demand_accesses::.cpu.data      4924471                       # number of demand (read+write) accesses
system.cpu.dcache.demand_accesses::total      4924471                       # number of demand (read+write) accesses
system.cpu.dcache.overall_accesses::.cpu.data      4924471                       # number of overall (read+write) accesses
system.cpu.dcache.overall_accesses::total      4924471                       # number of overall (read+write) accesses
system.cpu.dcache.demand_miss_rate::.cpu.data     0.677769                       # miss rate for demand accesses
system.cpu.dcache.demand_miss_rate::total     0.677769                       # miss rate for demand accesses
system.cpu.dcache.overall_miss_rate::.cpu.data     0.677769                       # miss rate for overall accesses
system.cpu.dcache.overall_miss_rate::total     0.677769                       # miss rate for overall accesses
system.cpu.dcache.demand_avg_miss_latency::.cpu.data 53871.688419                       # average overall miss latency
system.cpu.dcache.demand_avg_miss_latency::total 53871.688419                       # average overall miss latency
system.cpu.dcache.overall_avg_miss_latency::.cpu.data 53871.688419                       # average overall miss latency
system.cpu.dcache.overall_avg_miss_latency::total 53871.688419                       # average overall miss latency
system.cpu.dcache.blocked_cycles::no_mshrs      7812167                       # number of cycles access was blocked
system.cpu.dcache.blocked_cycles::no_targets          595                       # number of cycles access was blocked
system.cpu.dcache.blocked::no_mshrs           1033985                       # number of cycles access was blocked
system.cpu.dcache.blocked::no_targets               1                       # number of cycles access was blocked
system.cpu.dcache.avg_blocked_cycles::no_mshrs     7.555397                       # average number of cycles each access was blocked
system.cpu.dcache.avg_blocked_cycles::no_targets          595                       # average number of cycles each access was blocked
system.cpu.dcache.writebacks::.writebacks         1803                       # number of writebacks
system.cpu.dcache.writebacks::total              1803                       # number of writebacks
system.cpu.dcache.demand_mshr_hits::.cpu.data      1906601                       # number of demand (read+write) MSHR hits
system.cpu.dcache.demand_mshr_hits::total      1906601                       # number of demand (read+write) MSHR hits
system.cpu.dcache.overall_mshr_hits::.cpu.data      1906601                       # number of overall MSHR hits
system.cpu.dcache.overall_mshr_hits::total      1906601                       # number of overall MSHR hits
system.cpu.dcache.demand_mshr_misses::.cpu.data      1431053                       # number of demand (read+write) MSHR misses
system.cpu.dcache.demand_mshr_misses::total      1431053                       # number of demand (read+write) MSHR misses
system.cpu.dcache.overall_mshr_misses::.cpu.data      1431053                       # number of overall MSHR misses
system.cpu.dcache.overall_mshr_misses::total      1431053                       # number of overall MSHR misses
system.cpu.dcache.demand_mshr_miss_latency::.cpu.data  33322780854                       # number of demand (read+write) MSHR miss cycles
system.cpu.dcache.demand_mshr_miss_latency::total  33322780854                       # number of demand (read+write) MSHR miss cycles
system.cpu.dcache.overall_mshr_miss_latency::.cpu.data  33322780854                       # number of overall MSHR miss cycles
system.cpu.dcache.overall_mshr_miss_latency::total  33322780854                       # number of overall MSHR miss cycles
system.cpu.dcache.demand_mshr_miss_rate::.cpu.data     0.290600                       # mshr miss rate for demand accesses
system.cpu.dcache.demand_mshr_miss_rate::total     0.290600                       # mshr miss rate for demand accesses
system.cpu.dcache.overall_mshr_miss_rate::.cpu.data     0.290600                       # mshr miss rate for overall accesses
system.cpu.dcache.overall_mshr_miss_rate::total     0.290600                       # mshr miss rate for overall accesses
system.cpu.dcache.demand_avg_mshr_miss_latency::.cpu.data 23285.497360                       # average overall mshr miss latency
system.cpu.dcache.demand_avg_mshr_miss_latency::total 23285.497360                       # average overall mshr miss latency
system.cpu.dcache.overall_avg_mshr_miss_latency::.cpu.data 23285.497360                       # average overall mshr miss latency
system.cpu.dcache.overall_avg_mshr_miss_latency::total 23285.497360                       # average overall mshr miss latency
system.cpu.dcache.replacements                1430029                       # number of replacements
system.cpu.dcache.ReadReq_hits::.cpu.data      1560757                       # number of ReadReq hits
system.cpu.dcache.ReadReq_hits::total         1560757                       # number of ReadReq hits
system.cpu.dcache.ReadReq_misses::.cpu.data      3337539                       # number of ReadReq misses
system.cpu.dcache.ReadReq_misses::total       3337539                       # number of ReadReq misses
system.cpu.dcache.ReadReq_miss_latency::.cpu.data 179796301685                       # number of ReadReq miss cycles
system.cpu.dcache.ReadReq_miss_latency::total 179796301685                       # number of ReadReq miss cycles
system.cpu.dcache.ReadReq_accesses::.cpu.data      4898296                       # number of ReadReq accesses(hits+misses)
system.cpu.dcache.ReadReq_accesses::total      4898296                       # number of ReadReq accesses(hits+misses)
system.cpu.dcache.ReadReq_miss_rate::.cpu.data     0.681367                       # miss rate for ReadReq accesses
system.cpu.dcache.ReadReq_miss_rate::total     0.681367                       # miss rate for ReadReq accesses
system.cpu.dcache.ReadReq_avg_miss_latency::.cpu.data 53870.921564                       # average ReadReq miss latency
system.cpu.dcache.ReadReq_avg_miss_latency::total 53870.921564                       # average ReadReq miss latency
system.cpu.dcache.ReadReq_mshr_hits::.cpu.data      1906599                       # number of ReadReq MSHR hits
system.cpu.dcache.ReadReq_mshr_hits::total      1906599                       # number of ReadReq MSHR hits
system.cpu.dcache.ReadReq_mshr_misses::.cpu.data      1430940                       # number of ReadReq MSHR misses
system.cpu.dcache.ReadReq_mshr_misses::total      1430940                       # number of ReadReq MSHR misses
system.cpu.dcache.ReadReq_mshr_miss_latency::.cpu.data  33314232770                       # number of ReadReq MSHR miss cycles
system.cpu.dcache.ReadReq_mshr_miss_latency::total  33314232770                       # number of ReadReq MSHR miss cycles
system.cpu.dcache.ReadReq_mshr_miss_rate::.cpu.data     0.292130                       # mshr miss rate for ReadReq accesses
system.cpu.dcache.ReadReq_mshr_miss_rate::total     0.292130                       # mshr miss rate for ReadReq accesses
system.cpu.dcache.ReadReq_avg_mshr_miss_latency::.cpu.data 23281.362440                       # average ReadReq mshr miss latency
system.cpu.dcache.ReadReq_avg_mshr_miss_latency::total 23281.362440                       # average ReadReq mshr miss latency
system.cpu.dcache.WriteReq_hits::.cpu.data        26060                       # number of WriteReq hits
system.cpu.dcache.WriteReq_hits::total          26060                       # number of WriteReq hits
system.cpu.dcache.WriteReq_misses::.cpu.data          115                       # number of WriteReq misses
system.cpu.dcache.WriteReq_misses::total          115                       # number of WriteReq misses
system.cpu.dcache.WriteReq_miss_latency::.cpu.data      8754654                       # number of WriteReq miss cycles
system.cpu.dcache.WriteReq_miss_latency::total      8754654                       # number of WriteReq miss cycles
system.cpu.dcache.WriteReq_accesses::.cpu.data        26175                       # number of WriteReq accesses(hits+misses)
system.cpu.dcache.WriteReq_accesses::total        26175                       # number of WriteReq accesses(hits+misses)
system.cpu.dcache.WriteReq_miss_rate::.cpu.data     0.004394                       # miss rate for WriteReq accesses
system.cpu.dcache.WriteReq_miss_rate::total     0.004394                       # miss rate for WriteReq accesses
system.cpu.dcache.WriteReq_avg_miss_latency::.cpu.data 76127.426087                       # average WriteReq miss latency
system.cpu.dcache.WriteReq_avg_miss_latency::total 76127.426087                       # average WriteReq miss latency
system.cpu.dcache.WriteReq_mshr_hits::.cpu.data            2                       # number of WriteReq MSHR hits
system.cpu.dcache.WriteReq_mshr_hits::total            2                       # number of WriteReq MSHR hits
system.cpu.dcache.WriteReq_mshr_misses::.cpu.data          113                       # number of WriteReq MSHR misses
system.cpu.dcache.WriteReq_mshr_misses::total          113                       # number of WriteReq MSHR misses
system.cpu.dcache.WriteReq_mshr_miss_latency::.cpu.data      8548084                       # number of WriteReq MSHR miss cycles
system.cpu.dcache.WriteReq_mshr_miss_latency::total      8548084                       # number of WriteReq MSHR miss cycles
system.cpu.dcache.WriteReq_mshr_miss_rate::.cpu.data     0.004317                       # mshr miss rate for WriteReq accesses
system.cpu.dcache.WriteReq_mshr_miss_rate::total     0.004317                       # mshr miss rate for WriteReq accesses
system.cpu.dcache.WriteReq_avg_mshr_miss_latency::.cpu.data 75646.761062                       # average WriteReq mshr miss latency
system.cpu.dcache.WriteReq_avg_mshr_miss_latency::total 75646.761062                       # average WriteReq mshr miss latency
system.cpu.dcache.power_state.pwrStateResidencyTicks::UNDEFINED  13660583300                       # Cumulative time (in ticks) in various power states
system.cpu.dcache.tags.tagsinuse          1021.014036                       # Cycle average of tags in use
system.cpu.dcache.tags.total_refs             3017870                       # Total number of references to valid blocks.
system.cpu.dcache.tags.sampled_refs           1431053                       # Sample count of references to valid blocks.
system.cpu.dcache.tags.avg_refs              2.108846                       # Average number of references to valid blocks.
system.cpu.dcache.tags.warmup_cycle            174720                       # Cycle when the warmup percentage was hit.
system.cpu.dcache.tags.occ_blocks::.cpu.data  1021.014036                       # Average occupied blocks per requestor
system.cpu.dcache.tags.occ_percent::.cpu.data     0.997084                       # Average percentage of cache occupancy
system.cpu.dcache.tags.occ_percent::total     0.997084                       # Average percentage of cache occupancy
system.cpu.dcache.tags.occ_task_id_blocks::1024         1024                       # Occupied blocks per task id
system.cpu.dcache.tags.age_task_id_blocks_1024::0          579                       # Occupied blocks per task id
system.cpu.dcache.tags.age_task_id_blocks_1024::1          445                       # Occupied blocks per task id
system.cpu.dcache.tags.occ_task_id_percent::1024            1                       # Percentage of cache occupancy per task id
system.cpu.dcache.tags.tag_accesses          21128937                       # Number of tag accesses
system.cpu.dcache.tags.data_accesses         21128937                       # Number of data accesses
system.cpu.dcache.tags.power_state.pwrStateResidencyTicks::UNDEFINED  13660583300                       # Cumulative time (in ticks) in various power states
system.cpu.decode.idleCycles                  1305097                       # Number of cycles decode is idle
system.cpu.decode.blockedCycles              25086523                       # Number of cycles decode is blocked
system.cpu.decode.runCycles                   2345532                       # Number of cycles decode is running
system.cpu.decode.unblockCycles               1221699                       # Number of cycles decode is unblocking
system.cpu.decode.squashCycles                  25417                       # Number of cycles decode is squashing
system.cpu.decode.branchResolved              1627613                       # Number of times decode resolved a  branch
system.cpu.decode.branchMispred                   215                       # Number of times decode detected a branch misprediction
system.cpu.decode.decodedInsts               23114236                       # Number of instructions handled by decode
system.cpu.decode.squashedInsts                   875                       # Number of squashed instructions handled by decode
system.cpu.dtb.rdAccesses                     4929106                       # TLB accesses on read requests
system.cpu.dtb.wrAccesses                       26757                       # TLB accesses on write requests
system.cpu.dtb.rdMisses                        127730                       # TLB misses on read requests
system.cpu.dtb.wrMisses                            19                       # TLB misses on write requests
system.cpu.dtb.walker.power_state.pwrStateResidencyTicks::UNDEFINED  13660583300                       # Cumulative time (in ticks) in various power states
system.cpu.dtb_walker_cache.blocked_cycles::no_mshrs            0                       # number of cycles access was blocked
system.cpu.dtb_walker_cache.blocked_cycles::no_targets            0                       # number of cycles access was blocked
system.cpu.dtb_walker_cache.blocked::no_mshrs            0                       # number of cycles access was blocked
system.cpu.dtb_walker_cache.blocked::no_targets            0                       # number of cycles access was blocked
system.cpu.dtb_walker_cache.avg_blocked_cycles::no_mshrs          nan                       # average number of cycles each access was blocked
system.cpu.dtb_walker_cache.avg_blocked_cycles::no_targets          nan                       # average number of cycles each access was blocked
system.cpu.dtb_walker_cache.replacements            0                       # number of replacements
system.cpu.dtb_walker_cache.power_state.pwrStateResidencyTicks::UNDEFINED  13660583300                       # Cumulative time (in ticks) in various power states
system.cpu.dtb_walker_cache.tags.tagsinuse            0                       # Cycle average of tags in use
system.cpu.dtb_walker_cache.tags.total_refs            0                       # Total number of references to valid blocks.
system.cpu.dtb_walker_cache.tags.sampled_refs            0                       # Sample count of references to valid blocks.
system.cpu.dtb_walker_cache.tags.avg_refs          nan                       # Average number of references to valid blocks.
system.cpu.dtb_walker_cache.tags.warmup_cycle            0                       # Cycle when the warmup percentage was hit.
system.cpu.dtb_walker_cache.tags.tag_accesses            0                       # Number of tag accesses
system.cpu.dtb_walker_cache.tags.data_accesses            0                       # Number of data accesses
system.cpu.dtb_walker_cache.tags.power_state.pwrStateResidencyTicks::UNDEFINED  13660583300                       # Cumulative time (in ticks) in various power states
system.cpu.fetch.icacheStallCycles            3338695                       # Number of cycles fetch is stalled on an Icache miss
system.cpu.fetch.insts                       11794253                       # Number of instructions fetch has processed
system.cpu.fetch.branches                     1684901                       # Number of branches that fetch encountered
system.cpu.fetch.predictedBranches            1657144                       # Number of branches that fetch has predicted taken
system.cpu.fetch.cycles                      26618807                       # Number of cycles fetch has run and was not squashing or blocked
system.cpu.fetch.squashCycles                   51250                       # Number of cycles fetch has spent squashing
system.cpu.fetch.miscStallCycles                  160                       # Number of cycles fetch has spent waiting on interrupts,or bad addresses, or out of MSHRs
system.cpu.fetch.pendingTrapStallCycles           946                       # Number of stall cycles due to pending traps
system.cpu.fetch.pendingQuiesceStallCycles            2                       # Number of stall cycles due to pending quiesce instructions
system.cpu.fetch.icacheWaitRetryStallCycles           33                       # Number of stall cycles due to full MSHR
system.cpu.fetch.cacheLines                   3318122                       # Number of cache lines fetched
system.cpu.fetch.icacheSquashes                  7538                       # Number of outstanding Icache misses that were squashed
system.cpu.fetch.nisnDist::samples           29984268                       # Number of instructions fetched each cycle (Total)
system.cpu.fetch.nisnDist::mean              0.784395                       # Number of instructions fetched each cycle (Total)
system.cpu.fetch.nisnDist::stdev             2.064229                       # Number of instructions fetched each cycle (Total)
system.cpu.fetch.nisnDist::underflows               0      0.00%      0.00% # Number of instructions fetched each cycle (Total)
system.cpu.fetch.nisnDist::0                 24798627     82.71%     82.71% # Number of instructions fetched each cycle (Total)
system.cpu.fetch.nisnDist::1                  1539613      5.13%     87.84% # Number of instructions fetched each cycle (Total)
system.cpu.fetch.nisnDist::2                   148316      0.49%     88.33% # Number of instructions fetched each cycle (Total)
system.cpu.fetch.nisnDist::3                   167949      0.56%     88.89% # Number of instructions fetched each cycle (Total)
system.cpu.fetch.nisnDist::4                   180542      0.60%     89.50% # Number of instructions fetched each cycle (Total)
system.cpu.fetch.nisnDist::5                  1509887      5.04%     94.53% # Number of instructions fetched each cycle (Total)
system.cpu.fetch.nisnDist::6                    58909      0.20%     94.73% # Number of instructions fetched each cycle (Total)
system.cpu.fetch.nisnDist::7                    89025      0.30%     95.03% # Number of instructions fetched each cycle (Total)
system.cpu.fetch.nisnDist::8                  1491400      4.97%    100.00% # Number of instructions fetched each cycle (Total)
system.cpu.fetch.nisnDist::overflows                0      0.00%    100.00% # Number of instructions fetched each cycle (Total)
system.cpu.fetch.nisnDist::min_value                0                       # Number of instructions fetched each cycle (Total)
system.cpu.fetch.nisnDist::max_value                8                       # Number of instructions fetched each cycle (Total)
system.cpu.fetch.nisnDist::total             29984268                       # Number of instructions fetched each cycle (Total)
system.cpu.fetch.branchRate                  0.056120                       # Number of branch fetches per cycle
system.cpu.fetch.rate                        0.392837                       # Number of inst fetches per cycle
system.cpu.icache.demand_hits::.cpu.inst      3317511                       # number of demand (read+write) hits
system.cpu.icache.demand_hits::total          3317511                       # number of demand (read+write) hits
system.cpu.icache.overall_hits::.cpu.inst      3317511                       # number of overall hits
system.cpu.icache.overall_hits::total         3317511                       # number of overall hits
system.cpu.icache.demand_misses::.cpu.inst          611                       # number of demand (read+write) misses
system.cpu.icache.demand_misses::total            611                       # number of demand (read+write) misses
system.cpu.icache.overall_misses::.cpu.inst          611                       # number of overall misses
system.cpu.icache.overall_misses::total           611                       # number of overall misses
system.cpu.icache.demand_miss_latency::.cpu.inst     46686639                       # number of demand (read+write) miss cycles
system.cpu.icache.demand_miss_latency::total     46686639                       # number of demand (read+write) miss cycles
system.cpu.icache.overall_miss_latency::.cpu.inst     46686639                       # number of overall miss cycles
system.cpu.icache.overall_miss_latency::total     46686639                       # number of overall miss cycles
system.cpu.icache.demand_accesses::.cpu.inst      3318122                       # number of demand (read+write) accesses
system.cpu.icache.demand_accesses::total      3318122                       # number of demand (read+write) accesses
system.cpu.icache.overall_accesses::.cpu.inst      3318122                       # number of overall (read+write) accesses
system.cpu.icache.overall_accesses::total      3318122                       # number of overall (read+write) accesses
system.cpu.icache.demand_miss_rate::.cpu.inst     0.000184                       # miss rate for demand accesses
system.cpu.icache.demand_miss_rate::total     0.000184                       # miss rate for demand accesses
system.cpu.icache.overall_miss_rate::.cpu.inst     0.000184                       # miss rate for overall accesses
system.cpu.icache.overall_miss_rate::total     0.000184                       # miss rate for overall accesses
system.cpu.icache.demand_avg_miss_latency::.cpu.inst 76410.211129                       # average overall miss latency
system.cpu.icache.demand_avg_miss_latency::total 76410.211129                       # average overall miss latency
system.cpu.icache.overall_avg_miss_latency::.cpu.inst 76410.211129                       # average overall miss latency
system.cpu.icache.overall_avg_miss_latency::total 76410.211129                       # average overall miss latency
system.cpu.icache.blocked_cycles::no_mshrs          388                       # number of cycles access was blocked
system.cpu.icache.blocked_cycles::no_targets            0                       # number of cycles access was blocked
system.cpu.icache.blocked::no_mshrs                 5                       # number of cycles access was blocked
system.cpu.icache.blocked::no_targets               0                       # number of cycles access was blocked
system.cpu.icache.avg_blocked_cycles::no_mshrs    77.600000                       # average number of cycles each access was blocked
system.cpu.icache.avg_blocked_cycles::no_targets          nan                       # average number of cycles each access was blocked
system.cpu.icache.writebacks::.writebacks           16                       # number of writebacks
system.cpu.icache.writebacks::total                16                       # number of writebacks
system.cpu.icache.demand_mshr_hits::.cpu.inst          140                       # number of demand (read+write) MSHR hits
system.cpu.icache.demand_mshr_hits::total          140                       # number of demand (read+write) MSHR hits
system.cpu.icache.overall_mshr_hits::.cpu.inst          140                       # number of overall MSHR hits
system.cpu.icache.overall_mshr_hits::total          140                       # number of overall MSHR hits
system.cpu.icache.demand_mshr_misses::.cpu.inst          471                       # number of demand (read+write) MSHR misses
system.cpu.icache.demand_mshr_misses::total          471                       # number of demand (read+write) MSHR misses
system.cpu.icache.overall_mshr_misses::.cpu.inst          471                       # number of overall MSHR misses
system.cpu.icache.overall_mshr_misses::total          471                       # number of overall MSHR misses
system.cpu.icache.demand_mshr_miss_latency::.cpu.inst     37334569                       # number of demand (read+write) MSHR miss cycles
system.cpu.icache.demand_mshr_miss_latency::total     37334569                       # number of demand (read+write) MSHR miss cycles
system.cpu.icache.overall_mshr_miss_latency::.cpu.inst     37334569                       # number of overall MSHR miss cycles
system.cpu.icache.overall_mshr_miss_latency::total     37334569                       # number of overall MSHR miss cycles
system.cpu.icache.demand_mshr_miss_rate::.cpu.inst     0.000142                       # mshr miss rate for demand accesses
system.cpu.icache.demand_mshr_miss_rate::total     0.000142                       # mshr miss rate for demand accesses
system.cpu.icache.overall_mshr_miss_rate::.cpu.inst     0.000142                       # mshr miss rate for overall accesses
system.cpu.icache.overall_mshr_miss_rate::total     0.000142                       # mshr miss rate for overall accesses
system.cpu.icache.demand_avg_mshr_miss_latency::.cpu.inst 79266.600849                       # average overall mshr miss latency
system.cpu.icache.demand_avg_mshr_miss_latency::total 79266.600849                       # average overall mshr miss latency
system.cpu.icache.overall_avg_mshr_miss_latency::.cpu.inst 79266.600849                       # average overall mshr miss latency
system.cpu.icache.overall_avg_mshr_miss_latency::total 79266.600849                       # average overall mshr miss latency
system.cpu.icache.replacements                     16                       # number of replacements
system.cpu.icache.ReadReq_hits::.cpu.inst      3317511                       # number of ReadReq hits
system.cpu.icache.ReadReq_hits::total         3317511                       # number of ReadReq hits
system.cpu.icache.ReadReq_misses::.cpu.inst          611                       # number of ReadReq misses
system.cpu.icache.ReadReq_misses::total           611                       # number of ReadReq misses
system.cpu.icache.ReadReq_miss_latency::.cpu.inst     46686639                       # number of ReadReq miss cycles
system.cpu.icache.ReadReq_miss_latency::total     46686639                       # number of ReadReq miss cycles
system.cpu.icache.ReadReq_accesses::.cpu.inst      3318122                       # number of ReadReq accesses(hits+misses)
system.cpu.icache.ReadReq_accesses::total      3318122                       # number of ReadReq accesses(hits+misses)
system.cpu.icache.ReadReq_miss_rate::.cpu.inst     0.000184                       # miss rate for ReadReq accesses
system.cpu.icache.ReadReq_miss_rate::total     0.000184                       # miss rate for ReadReq accesses
system.cpu.icache.ReadReq_avg_miss_latency::.cpu.inst 76410.211129                       # average ReadReq miss latency
system.cpu.icache.ReadReq_avg_miss_latency::total 76410.211129                       # average ReadReq miss latency
system.cpu.icache.ReadReq_mshr_hits::.cpu.inst          140                       # number of ReadReq MSHR hits
system.cpu.icache.ReadReq_mshr_hits::total          140                       # number of ReadReq MSHR hits
system.cpu.icache.ReadReq_mshr_misses::.cpu.inst          471                       # number of ReadReq MSHR misses
system.cpu.icache.ReadReq_mshr_misses::total          471                       # number of ReadReq MSHR misses
system.cpu.icache.ReadReq_mshr_miss_latency::.cpu.inst     37334569                       # number of ReadReq MSHR miss cycles
system.cpu.icache.ReadReq_mshr_miss_latency::total     37334569                       # number of ReadReq MSHR miss cycles
system.cpu.icache.ReadReq_mshr_miss_rate::.cpu.inst     0.000142                       # mshr miss rate for ReadReq accesses
system.cpu.icache.ReadReq_mshr_miss_rate::total     0.000142                       # mshr miss rate for ReadReq accesses
system.cpu.icache.ReadReq_avg_mshr_miss_latency::.cpu.inst 79266.600849                       # average ReadReq mshr miss latency
system.cpu.icache.ReadReq_avg_mshr_miss_latency::total 79266.600849                       # average ReadReq mshr miss latency
system.cpu.icache.power_state.pwrStateResidencyTicks::UNDEFINED  13660583300                       # Cumulative time (in ticks) in various power states
system.cpu.icache.tags.tagsinuse           415.520399                       # Cycle average of tags in use
system.cpu.icache.tags.total_refs             3317981                       # Total number of references to valid blocks.
system.cpu.icache.tags.sampled_refs               470                       # Sample count of references to valid blocks.
system.cpu.icache.tags.avg_refs           7059.534043                       # Average number of references to valid blocks.
system.cpu.icache.tags.warmup_cycle             86905                       # Cycle when the warmup percentage was hit.
system.cpu.icache.tags.occ_blocks::.cpu.inst   415.520399                       # Average occupied blocks per requestor
system.cpu.icache.tags.occ_percent::.cpu.inst     0.405782                       # Average percentage of cache occupancy
system.cpu.icache.tags.occ_percent::total     0.405782                       # Average percentage of cache occupancy
system.cpu.icache.tags.occ_task_id_blocks::1024          454                       # Occupied blocks per task id
system.cpu.icache.tags.age_task_id_blocks_1024::0           40                       # Occupied blocks per task id
system.cpu.icache.tags.age_task_id_blocks_1024::4          414                       # Occupied blocks per task id
system.cpu.icache.tags.occ_task_id_percent::1024     0.443359                       # Percentage of cache occupancy per task id
system.cpu.icache.tags.tag_accesses           6636714                       # Number of tag accesses
system.cpu.icache.tags.data_accesses          6636714                       # Number of data accesses
system.cpu.icache.tags.power_state.pwrStateResidencyTicks::UNDEFINED  13660583300                       # Cumulative time (in ticks) in various power states
system.cpu.interrupts.clk_domain.clock           7280                       # Clock period in ticks
system.cpu.itb.rdAccesses                           0                       # TLB accesses on read requests
system.cpu.itb.wrAccesses                     3318287                       # TLB accesses on write requests
system.cpu.itb.rdMisses                             0                       # TLB misses on read requests
system.cpu.itb.wrMisses                           207                       # TLB misses on write requests
system.cpu.itb.walker.power_state.pwrStateResidencyTicks::UNDEFINED  13660583300                       # Cumulative time (in ticks) in various power states
system.cpu.itb_walker_cache.blocked_cycles::no_mshrs            0                       # number of cycles access was blocked
system.cpu.itb_walker_cache.blocked_cycles::no_targets            0                       # number of cycles access was blocked
system.cpu.itb_walker_cache.blocked::no_mshrs            0                       # number of cycles access was blocked
system.cpu.itb_walker_cache.blocked::no_targets            0                       # number of cycles access was blocked
system.cpu.itb_walker_cache.avg_blocked_cycles::no_mshrs          nan                       # average number of cycles each access was blocked
system.cpu.itb_walker_cache.avg_blocked_cycles::no_targets          nan                       # average number of cycles each access was blocked
system.cpu.itb_walker_cache.replacements            0                       # number of replacements
system.cpu.itb_walker_cache.power_state.pwrStateResidencyTicks::UNDEFINED  13660583300                       # Cumulative time (in ticks) in various power states
system.cpu.itb_walker_cache.tags.tagsinuse            0                       # Cycle average of tags in use
system.cpu.itb_walker_cache.tags.total_refs            0                       # Total number of references to valid blocks.
system.cpu.itb_walker_cache.tags.sampled_refs            0                       # Sample count of references to valid blocks.
system.cpu.itb_walker_cache.tags.avg_refs          nan                       # Average number of references to valid blocks.
system.cpu.itb_walker_cache.tags.warmup_cycle            0                       # Cycle when the warmup percentage was hit.
system.cpu.itb_walker_cache.tags.tag_accesses            0                       # Number of tag accesses
system.cpu.itb_walker_cache.tags.data_accesses            0                       # Number of data accesses
system.cpu.itb_walker_cache.tags.power_state.pwrStateResidencyTicks::UNDEFINED  13660583300                       # Cumulative time (in ticks) in various power states
system.cpu.lsq0.forwLoads                         187                       # Number of loads that had data forwarded from stores
system.cpu.lsq0.squashedLoads                   83862                       # Number of loads squashed
system.cpu.lsq0.ignoredResponses                    2                       # Number of memory responses ignored because the instruction is squashed
system.cpu.lsq0.memOrderViolation                  16                       # Number of memory ordering violations
system.cpu.lsq0.squashedStores                   1262                       # Number of stores squashed
system.cpu.lsq0.rescheduledLoads                    0                       # Number of loads that were rescheduled
system.cpu.lsq0.blockedByCache                1011208                       # Number of times an access to memory failed due to the cache being blocked
system.cpu.power_state.pwrStateResidencyTicks::ON  13660583300                       # Cumulative time (in ticks) in various power states
system.cpu.rename.squashCycles                  25417                       # Number of cycles rename is squashing
system.cpu.rename.idleCycles                  1764063                       # Number of cycles rename is idle
system.cpu.rename.blockCycles                14352140                       # Number of cycles rename is blocking
system.cpu.rename.serializeStallCycles             34                       # count of cycles rename stalledfor serializing inst
system.cpu.rename.runCycles                   3036833                       # Number of cycles rename is running
system.cpu.rename.unblockCycles              10805781                       # Number of cycles rename is unblocking
system.cpu.rename.renamedInsts               22973598                       # Number of instructions processed by rename
system.cpu.rename.ROBFullEvents                 78403                       # Number of times rename has blocked due to ROB full
system.cpu.rename.IQFullEvents                3174130                       # Number of times rename has blocked due to IQ full
system.cpu.rename.LQFullEvents                9159566                       # Number of times rename has blocked due to LQ full
system.cpu.rename.SQFullEvents                   7477                       # Number of times rename has blocked due to SQ full
system.cpu.rename.renamedOperands            27871055                       # Number of destination operands rename has renamed
system.cpu.rename.lookups                    47622080                       # Number of register rename lookups that rename has made
system.cpu.rename.intLookups                 21381781                       # Number of integer rename lookups
system.cpu.rename.fpLookups                   9789161                       # Number of floating rename lookups
system.cpu.rename.committedMaps              27317465                       # Number of HB maps that are committed
system.cpu.rename.undoneMaps                   553584                       # Number of HB maps that are undone due to squashing
system.cpu.rename.serializing                       3                       # count of serializing insts renamed
system.cpu.rename.tempSerializing                   3                       # count of temporary serializing insts renamed
system.cpu.rename.skidInsts                   6309101                       # count of insts added to the skid buffer
system.cpu.rob.reads                         50898618                       # The number of ROB reads
system.cpu.rob.writes                        45790136                       # The number of ROB writes
system.cpu.thread_0.numInsts                 11290577                       # Number of Instructions committed
system.cpu.thread_0.numOps                   22507585                       # Number of Ops committed
system.cpu.thread_0.numMemRefs                      0                       # Number of Memory References
system.cpu_clk_domain.clock                       455                       # Clock period in ticks
system.cpu_voltage_domain.voltage                   1                       # Voltage in Volts
system.l2.demand_hits::.cpu.inst                    3                       # number of demand (read+write) hits
system.l2.demand_hits::.cpu.data              1223786                       # number of demand (read+write) hits
system.l2.demand_hits::total                  1223789                       # number of demand (read+write) hits
system.l2.overall_hits::.cpu.inst                   3                       # number of overall hits
system.l2.overall_hits::.cpu.data             1223786                       # number of overall hits
system.l2.overall_hits::total                 1223789                       # number of overall hits
system.l2.demand_misses::.cpu.inst                468                       # number of demand (read+write) misses
system.l2.demand_misses::.cpu.data             207267                       # number of demand (read+write) misses
system.l2.demand_misses::total                 207735                       # number of demand (read+write) misses
system.l2.overall_misses::.cpu.inst               468                       # number of overall misses
system.l2.overall_misses::.cpu.data            207267                       # number of overall misses
system.l2.overall_misses::total                207735                       # number of overall misses
system.l2.demand_miss_latency::.cpu.inst     36661170                       # number of demand (read+write) miss cycles
system.l2.demand_miss_latency::.cpu.data  19187526540                       # number of demand (read+write) miss cycles
system.l2.demand_miss_latency::total      19224187710                       # number of demand (read+write) miss cycles
system.l2.overall_miss_latency::.cpu.inst     36661170                       # number of overall miss cycles
system.l2.overall_miss_latency::.cpu.data  19187526540                       # number of overall miss cycles
system.l2.overall_miss_latency::total     19224187710                       # number of overall miss cycles
system.l2.demand_accesses::.cpu.inst              471                       # number of demand (read+write) accesses
system.l2.demand_accesses::.cpu.data          1431053                       # number of demand (read+write) accesses
system.l2.demand_accesses::total              1431524                       # number of demand (read+write) accesses
system.l2.overall_accesses::.cpu.inst             471                       # number of overall (read+write) accesses
system.l2.overall_accesses::.cpu.data         1431053                       # number of overall (read+write) accesses
system.l2.overall_accesses::total             1431524                       # number of overall (read+write) accesses
system.l2.demand_miss_rate::.cpu.inst        0.993631                       # miss rate for demand accesses
system.l2.demand_miss_rate::.cpu.data        0.144835                       # miss rate for demand accesses
system.l2.demand_miss_rate::total            0.145115                       # miss rate for demand accesses
system.l2.overall_miss_rate::.cpu.inst       0.993631                       # miss rate for overall accesses
system.l2.overall_miss_rate::.cpu.data       0.144835                       # miss rate for overall accesses
system.l2.overall_miss_rate::total           0.145115                       # miss rate for overall accesses
system.l2.demand_avg_miss_latency::.cpu.inst 78335.833333                       # average overall miss latency
system.l2.demand_avg_miss_latency::.cpu.data 92573.957938                       # average overall miss latency
system.l2.demand_avg_miss_latency::total 92541.881291                       # average overall miss latency
system.l2.overall_avg_miss_latency::.cpu.inst 78335.833333                       # average overall miss latency
system.l2.overall_avg_miss_latency::.cpu.data 92573.957938                       # average overall miss latency
system.l2.overall_avg_miss_latency::total 92541.881291                       # average overall miss latency
system.l2.blocked_cycles::no_mshrs                  0                       # number of cycles access was blocked
system.l2.blocked_cycles::no_targets                0                       # number of cycles access was blocked
system.l2.blocked::no_mshrs                         0                       # number of cycles access was blocked
system.l2.blocked::no_targets                       0                       # number of cycles access was blocked
[...]
system.mem_ctrls.dram.bw_total::.cpu.data    971048432                       # Total bandwidth to/from this memory (bytes/s)
system.mem_ctrls.dram.bw_total::total       979687595                       # Total bandwidth to/from this memory (bytes/s)
system.mem_ctrls.dram.readBursts               207720                       # Number of DRAM read bursts
system.mem_ctrls.dram.writeBursts                1361                       # Number of DRAM write bursts
system.mem_ctrls.dram.perBankRdBursts::0        13250                       # Per bank write bursts
system.mem_ctrls.dram.perBankRdBursts::1        13244                       # Per bank write bursts
system.mem_ctrls.dram.perBankRdBursts::2        13046                       # Per bank write bursts
system.mem_ctrls.dram.perBankRdBursts::3        12749                       # Per bank write bursts
system.mem_ctrls.dram.perBankRdBursts::4        12952                       # Per bank write bursts
system.mem_ctrls.dram.perBankRdBursts::5        12745                       # Per bank write bursts
system.mem_ctrls.dram.perBankRdBursts::6        13086                       # Per bank write bursts
system.mem_ctrls.dram.perBankRdBursts::7        13255                       # Per bank write bursts
system.mem_ctrls.dram.perBankRdBursts::8        13189                       # Per bank write bursts
system.mem_ctrls.dram.perBankRdBursts::9        13175                       # Per bank write bursts
system.mem_ctrls.dram.perBankRdBursts::10        12790                       # Per bank write bursts
system.mem_ctrls.dram.perBankRdBursts::11        12767                       # Per bank write bursts
system.mem_ctrls.dram.perBankRdBursts::12        12809                       # Per bank write bursts
system.mem_ctrls.dram.perBankRdBursts::13        12781                       # Per bank write bursts
system.mem_ctrls.dram.perBankRdBursts::14        12829                       # Per bank write bursts
system.mem_ctrls.dram.perBankRdBursts::15        13053                       # Per bank write bursts
system.mem_ctrls.dram.perBankWrBursts::0            0                       # Per bank write bursts
system.mem_ctrls.dram.perBankWrBursts::1            0                       # Per bank write bursts
system.mem_ctrls.dram.perBankWrBursts::2           39                       # Per bank write bursts
system.mem_ctrls.dram.perBankWrBursts::3           19                       # Per bank write bursts
system.mem_ctrls.dram.perBankWrBursts::4          127                       # Per bank write bursts
system.mem_ctrls.dram.perBankWrBursts::5            5                       # Per bank write bursts
system.mem_ctrls.dram.perBankWrBursts::6          166                       # Per bank write bursts
system.mem_ctrls.dram.perBankWrBursts::7          273                       # Per bank write bursts
system.mem_ctrls.dram.perBankWrBursts::8          327                       # Per bank write bursts
system.mem_ctrls.dram.perBankWrBursts::9          360                       # Per bank write bursts
system.mem_ctrls.dram.perBankWrBursts::10           37                       # Per bank write bursts
system.mem_ctrls.dram.perBankWrBursts::11            0                       # Per bank write bursts
system.mem_ctrls.dram.perBankWrBursts::12            0                       # Per bank write bursts
system.mem_ctrls.dram.perBankWrBursts::13            0                       # Per bank write bursts
system.mem_ctrls.dram.perBankWrBursts::14            0                       # Per bank write bursts
system.mem_ctrls.dram.perBankWrBursts::15            8                       # Per bank write bursts
system.mem_ctrls.dram.totQLat              4964631810                       # Total ticks spent queuing
system.mem_ctrls.dram.totBusLat            1038600000                       # Total ticks spent in databus transfers
system.mem_ctrls.dram.totMemAccLat         8859381810                       # Total ticks spent from burst creation until serviced by the DRAM
system.mem_ctrls.dram.avgQLat                23900.60                       # Average queueing delay per DRAM burst
system.mem_ctrls.dram.avgBusLat               5000.00                       # Average bus latency per DRAM burst
system.mem_ctrls.dram.avgMemAccLat           42650.60                       # Average memory access latency per DRAM burst
system.mem_ctrls.dram.readRowHits              110484                       # Number of row buffer hits during reads
system.mem_ctrls.dram.writeRowHits               1209                       # Number of row buffer hits during writes
system.mem_ctrls.dram.readRowHitRate            53.19                       # Row buffer hit rate for reads
system.mem_ctrls.dram.writeRowHitRate           88.83                       # Row buffer hit rate for writes
system.mem_ctrls.dram.bytesPerActivate::samples        97374                       # Bytes accessed per row activation
system.mem_ctrls.dram.bytesPerActivate::mean   137.394212                       # Bytes accessed per row activation
system.mem_ctrls.dram.bytesPerActivate::gmean    89.477867                       # Bytes accessed per row activation
system.mem_ctrls.dram.bytesPerActivate::stdev   216.528446                       # Bytes accessed per row activation
system.mem_ctrls.dram.bytesPerActivate::0-127        71189     73.11%     73.11% # Bytes accessed per row activation
system.mem_ctrls.dram.bytesPerActivate::128-255        18156     18.65%     91.75% # Bytes accessed per row activation
system.mem_ctrls.dram.bytesPerActivate::256-383         1069      1.10%     92.85% # Bytes accessed per row activation
system.mem_ctrls.dram.bytesPerActivate::384-511          688      0.71%     93.56% # Bytes accessed per row activation
system.mem_ctrls.dram.bytesPerActivate::512-639          548      0.56%     94.12% # Bytes accessed per row activation
system.mem_ctrls.dram.bytesPerActivate::640-767          508      0.52%     94.64% # Bytes accessed per row activation
system.mem_ctrls.dram.bytesPerActivate::768-895          473      0.49%     95.13% # Bytes accessed per row activation
system.mem_ctrls.dram.bytesPerActivate::896-1023          431      0.44%     95.57% # Bytes accessed per row activation
system.mem_ctrls.dram.bytesPerActivate::1024-1151         4312      4.43%    100.00% # Bytes accessed per row activation
system.mem_ctrls.dram.bytesPerActivate::total        97374                       # Bytes accessed per row activation
system.mem_ctrls.dram.bytesRead              13294080                       # Total number of bytes read from DRAM
system.mem_ctrls.dram.bytesWritten              87104                       # Total number of bytes written to DRAM
system.mem_ctrls.dram.avgRdBW              973.170743                       # Average DRAM read bandwidth in MiBytes/s
system.mem_ctrls.dram.avgWrBW                6.376302                       # Average DRAM write bandwidth in MiBytes/s
system.mem_ctrls.dram.peakBW                 12800.00                       # Theoretical peak bandwidth in MiByte/s
system.mem_ctrls.dram.busUtil                    7.65                       # Data bus utilization in percentage
system.mem_ctrls.dram.busUtilRead                7.60                       # Data bus utilization in percentage for reads
system.mem_ctrls.dram.busUtilWrite               0.05                       # Data bus utilization in percentage for writes
system.mem_ctrls.dram.pageHitRate               53.42                       # Row buffer hit rate, read and write combined
system.mem_ctrls.dram.power_state.pwrStateResidencyTicks::UNDEFINED  13660583300                       # Cumulative time (in ticks) in various power states
system.mem_ctrls.dram.rank0.actEnergy       353115840                       # Energy for activate commands per rank (pJ)
system.mem_ctrls.dram.rank0.preEnergy       187655160                       # Energy for precharge commands per rank (pJ)
system.mem_ctrls.dram.rank0.readEnergy      744894780                       # Energy for read commands per rank (pJ)
system.mem_ctrls.dram.rank0.writeEnergy       3283380                       # Energy for write commands per rank (pJ)
system.mem_ctrls.dram.rank0.refreshEnergy 1078078560.000000                       # Energy for refresh commands per rank (pJ)
system.mem_ctrls.dram.rank0.actBackEnergy   4982571780                       # Energy for active background per rank (pJ)
system.mem_ctrls.dram.rank0.preBackEnergy   1049814240                       # Energy for precharge background per rank (pJ)
system.mem_ctrls.dram.rank0.actPowerDownEnergy            0                       # Energy for active power-down per rank (pJ)
system.mem_ctrls.dram.rank0.prePowerDownEnergy            0                       # Energy for precharge power-down per rank (pJ)
system.mem_ctrls.dram.rank0.selfRefreshEnergy            0                       # Energy for self refresh per rank (pJ)
system.mem_ctrls.dram.rank0.totalEnergy    8399413740                       # Total energy per rank (pJ)
system.mem_ctrls.dram.rank0.averagePower   614.864941                       # Core power per rank (mW)
system.mem_ctrls.dram.rank0.totalIdleTime            0                       # Total Idle time Per DRAM Rank
system.mem_ctrls.dram.rank0.pwrStateTime::IDLE   2506782560                       # Time in different power states
system.mem_ctrls.dram.rank0.pwrStateTime::REF    456040000                       # Time in different power states
system.mem_ctrls.dram.rank0.pwrStateTime::SREF            0                       # Time in different power states
system.mem_ctrls.dram.rank0.pwrStateTime::PRE_PDN            0                       # Time in different power states
system.mem_ctrls.dram.rank0.pwrStateTime::ACT  10697760740                       # Time in different power states
system.mem_ctrls.dram.rank0.pwrStateTime::ACT_PDN            0                       # Time in different power states
system.mem_ctrls.dram.rank1.actEnergy       342234480                       # Energy for activate commands per rank (pJ)
system.mem_ctrls.dram.rank1.preEnergy       181879170                       # Energy for precharge commands per rank (pJ)
system.mem_ctrls.dram.rank1.readEnergy      738226020                       # Energy for read commands per rank (pJ)
system.mem_ctrls.dram.rank1.writeEnergy       3821040                       # Energy for write commands per rank (pJ)
system.mem_ctrls.dram.rank1.refreshEnergy 1078078560.000000                       # Energy for refresh commands per rank (pJ)
system.mem_ctrls.dram.rank1.actBackEnergy   4552495380                       # Energy for active background per rank (pJ)
system.mem_ctrls.dram.rank1.preBackEnergy   1411983840                       # Energy for precharge background per rank (pJ)
system.mem_ctrls.dram.rank1.actPowerDownEnergy            0                       # Energy for active power-down per rank (pJ)
system.mem_ctrls.dram.rank1.prePowerDownEnergy            0                       # Energy for precharge power-down per rank (pJ)
system.mem_ctrls.dram.rank1.selfRefreshEnergy            0                       # Energy for self refresh per rank (pJ)
system.mem_ctrls.dram.rank1.totalEnergy    8308718490                       # Total energy per rank (pJ)
system.mem_ctrls.dram.rank1.averagePower   608.225748                       # Core power per rank (mW)
system.mem_ctrls.dram.rank1.totalIdleTime            0                       # Total Idle time Per DRAM Rank
system.mem_ctrls.dram.rank1.pwrStateTime::IDLE   3424965990                       # Time in different power states
system.mem_ctrls.dram.rank1.pwrStateTime::REF    456040000                       # Time in different power states
system.mem_ctrls.dram.rank1.pwrStateTime::SREF            0                       # Time in different power states
system.mem_ctrls.dram.rank1.pwrStateTime::PRE_PDN            0                       # Time in different power states
system.mem_ctrls.dram.rank1.pwrStateTime::ACT   9779577310                       # Time in different power states
system.mem_ctrls.dram.rank1.pwrStateTime::ACT_PDN            0                       # Time in different power states
system.mem_ctrls.power_state.pwrStateResidencyTicks::UNDEFINED  13660583300                       # Cumulative time (in ticks) in various power states
system.membus.trans_dist::ReadResp             207625                       # Transaction distribution
system.membus.trans_dist::WritebackDirty         1377                       # Transaction distribution
system.membus.trans_dist::CleanEvict           173175                       # Transaction distribution
system.membus.trans_dist::ReadExReq               109                       # Transaction distribution
system.membus.trans_dist::ReadExResp              109                       # Transaction distribution
system.membus.trans_dist::ReadSharedReq        207625                       # Transaction distribution
system.membus.pkt_count_system.l2.mem_side_port::system.mem_ctrls.port       590020                       # Packet count per connected requestor and responder (bytes)
system.membus.pkt_count_system.l2.mem_side_port::total       590020                       # Packet count per connected requestor and responder (bytes)
system.membus.pkt_count::total                 590020                       # Packet count per connected requestor and responder (bytes)
system.membus.pkt_size_system.l2.mem_side_port::system.mem_ctrls.port     13383104                       # Cumulative packet size per connected requestor and responder (bytes)
system.membus.pkt_size_system.l2.mem_side_port::total     13383104                       # Cumulative packet size per connected requestor and responder (bytes)
system.membus.pkt_size::total                13383104                       # Cumulative packet size per connected requestor and responder (bytes)
system.membus.snoops                                0                       # Total snoops (count)
system.membus.snoopTraffic                          0                       # Total snoop traffic (bytes)
system.membus.snoop_fanout::samples            207734                       # Request fanout histogram
system.membus.snoop_fanout::mean                    0                       # Request fanout histogram
system.membus.snoop_fanout::stdev                   0                       # Request fanout histogram
system.membus.snoop_fanout::underflows              0      0.00%      0.00% # Request fanout histogram
system.membus.snoop_fanout::0                  207734    100.00%    100.00% # Request fanout histogram
system.membus.snoop_fanout::1                       0      0.00%    100.00% # Request fanout histogram
system.membus.snoop_fanout::overflows               0      0.00%    100.00% # Request fanout histogram
system.membus.snoop_fanout::min_value               0                       # Request fanout histogram
system.membus.snoop_fanout::max_value               0                       # Request fanout histogram
system.membus.snoop_fanout::total              207734                       # Request fanout histogram
system.membus.power_state.pwrStateResidencyTicks::UNDEFINED  13660583300                       # Cumulative time (in ticks) in various power states
system.membus.reqLayer2.occupancy           594478650                       # Layer occupancy (ticks)
system.membus.reqLayer2.utilization               4.4                       # Layer utilization (%)
system.membus.respLayer1.occupancy         1123165955                       # Layer occupancy (ticks)
system.membus.respLayer1.utilization              8.2                       # Layer utilization (%)
system.tol2bus.trans_dist::ReadResp           1431410                       # Transaction distribution
system.tol2bus.trans_dist::WritebackDirty         3180                       # Transaction distribution
system.tol2bus.trans_dist::WritebackClean           16                       # Transaction distribution
system.tol2bus.trans_dist::CleanEvict         1601823                       # Transaction distribution
system.tol2bus.trans_dist::ReadExReq              113                       # Transaction distribution
system.tol2bus.trans_dist::ReadExResp             113                       # Transaction distribution
system.tol2bus.trans_dist::ReadCleanReq           471                       # Transaction distribution
system.tol2bus.trans_dist::ReadSharedReq      1430940                       # Transaction distribution
system.tol2bus.pkt_count_system.cpu.icache.mem_side_port::system.l2.cpu_side_port          957                       # Packet count per connected requestor and responder (bytes)
system.tol2bus.pkt_count_system.cpu.dcache.mem_side_port::system.l2.cpu_side_port      4292135                       # Packet count per connected requestor and responder (bytes)
system.tol2bus.pkt_count::total               4293092                       # Packet count per connected requestor and responder (bytes)
system.tol2bus.pkt_size_system.cpu.icache.mem_side_port::system.l2.cpu_side_port        31104                       # Cumulative packet size per connected requestor and responder (bytes)
system.tol2bus.pkt_size_system.cpu.dcache.mem_side_port::system.l2.cpu_side_port     91702784                       # Cumulative packet size per connected requestor and responder (bytes)
system.tol2bus.pkt_size::total               91733888                       # Cumulative packet size per connected requestor and responder (bytes)
system.tol2bus.snoops                          174974                       # Total snoops (count)
system.tol2bus.snoopTraffic                     88128                       # Total snoop traffic (bytes)
system.tol2bus.snoop_fanout::samples          1606498                       # Request fanout histogram
system.tol2bus.snoop_fanout::mean            0.001932                       # Request fanout histogram
system.tol2bus.snoop_fanout::stdev           0.043907                       # Request fanout histogram
system.tol2bus.snoop_fanout::underflows             0      0.00%      0.00% # Request fanout histogram
system.tol2bus.snoop_fanout::0                1603395     99.81%     99.81% # Request fanout histogram
system.tol2bus.snoop_fanout::1                   3103      0.19%    100.00% # Request fanout histogram
system.tol2bus.snoop_fanout::2                      0      0.00%    100.00% # Request fanout histogram
system.tol2bus.snoop_fanout::3                      0      0.00%    100.00% # Request fanout histogram
system.tol2bus.snoop_fanout::4                      0      0.00%    100.00% # Request fanout histogram
system.tol2bus.snoop_fanout::overflows              0      0.00%    100.00% # Request fanout histogram
system.tol2bus.snoop_fanout::min_value              0                       # Request fanout histogram
system.tol2bus.snoop_fanout::max_value              1                       # Request fanout histogram
system.tol2bus.snoop_fanout::total            1606498                       # Request fanout histogram
system.tol2bus.power_state.pwrStateResidencyTicks::UNDEFINED  13660583300                       # Cumulative time (in ticks) in various power states
system.tol2bus.reqLayer0.occupancy         1303669185                       # Layer occupancy (ticks)
system.tol2bus.reqLayer0.utilization              9.5                       # Layer utilization (%)
system.tol2bus.respLayer0.occupancy            641550                       # Layer occupancy (ticks)
system.tol2bus.respLayer0.utilization             0.0                       # Layer utilization (%)
system.tol2bus.respLayer1.occupancy        1953387345                       # Layer occupancy (ticks)
system.tol2bus.respLayer1.utilization            14.3                       # Layer utilization (%)
system.voltage_domain.voltage                       1                       # Voltage in Volts

---------- End Simulation Statistics   ----------
